version 3
run test1-0-20240318-04:10:47-3650
attr configname test1
attr datetime 20240318-04:10:47
attr datetimef 20240318-041047
attr experiment test1
attr inifile omnetpp.ini
attr iterationvars ""
attr iterationvarsd ""
attr iterationvarsf ""
attr measurement ""
attr network TrainTopology
attr processid 3650
attr repetition 0
attr replication #0
attr resultdir results
attr runnumber 0
attr seedset 0
config image-path ../../inet4.5/images:../../simu5G/images
config network TrainTopology
config sim-time-limit 15.0s
config *.gnb*.numX2Apps 1
config *.gnb*.x2App[*].server.localPort "5000 + ancestorIndex(1)"
config *.gnb1.x2App[0].client.connectAddress "\"gnb2%x2ppp0\""
config *.gnb2.x2App[0].client.connectAddress "\"gnb1%x2ppp0\""
config *.*.dstt.destAddress "\"server\""
config *.*Ue[0].masterId 0
config *.*Ue[0].nrMacCellId 1
config *.*Ue[0].nrMasterId 1
config *.*Ue[1].masterId 0
config *.*Ue[1].nrMacCellId 1
config *.*Ue[1].nrMasterId 1
config *.*Ue[2].masterId 0
config *.*Ue[2].nrMacCellId 1
config *.*Ue[2].nrMasterId 2
config *.*Ue[3].masterId 0
config *.*Ue[3].nrMacCellId 1
config *.*Ue[3].nrMasterId 2
config *.switch3.macTable.forwardingTable "[{address:\"0A-AA-00-00-00-01\", interface:\"eth2\"}]"
config *.T*Client*.numApps 1
config *.T*Client*.app[0].typename UdpBasicApp
config *.T*Client*.app[0].display-name besteffort
config *.T*Client*.app[0].destAddresses "\"server\""
config *.T*Client*.app[0].destPort 1000
config *.T*Client*.app[0].localPort 1000
config *.T*Client*.app[0].messageLength 20B
config *.T*Client*.app[0].sendInterval 0.03s
config *.T*Client*.app[0].startTime 0.1s
config *.T*Client*.app[0].stopTime 1.1s
config *.B*Client*.numApps 1
config *.B*Client*.app[0].typename UdpBasicApp
config *.B*Client*.app[0].display-name video
config *.B*Client*.app[0].destAddresses "\"server\""
config *.B*Client*.app[0].destPort 1001
config *.B*Client*.app[0].localPort 1000
config *.B*Client*.app[0].messageLength 30B
config *.B*Client*.app[0].sendInterval 0.02s
config *.B*Client*.app[0].startTime 0.2s
config *.B*Client*.app[0].stopTime 10s
config *.server.numApps 2
config *.server.app[0].typename UdpSinkApp
config *.server.app[1].typename UdpSinkApp
config *.server.app[0].display-name besteffort
config *.server.app[1].display-name video
config *.server.app[0].io.localPort 1000
config *.server.app[1].io.localPort 1001
config *.*.hasOutgoingStreams true
config *.*.hasIncomingStreams true
config *.*Client*.bridging.streamIdentifier.identifier.mapping "[{stream: \"besteffort\", packetFilter: expr(udp.destPort == 1000)},\n\t\t\t\t\t\t\t\t\t\t\t\t\t\t\t{stream: \"video\", packetFilter: expr(udp.destPort == 1001)}]"
config *.*Client*.bridging.streamCoder.encoder.mapping "[{stream: \"besteffort\", pcp: 0},\n\t\t\t\t\t\t\t\t\t\t\t\t\t{stream: \"video\", pcp: 4}]"
config *.server.bridging.streamIdentifier.identifier.mapping "[{stream: \"besteffort\", packetFilter: expr(udp.destPort == 1000)},\n\t\t\t\t\t\t\t\t\t\t\t\t\t\t\t{stream: \"video\", packetFilter: expr(udp.destPort == 1001)}]"
config *.server.bridging.streamCoder.encoder.mapping "[{stream: \"besteffort\", pcp: 0},\n\t\t\t\t\t\t\t\t\t\t\t\t\t{stream: \"video\", pcp: 4}]"
config *.switch*.bridging.streamCoder.decoder.mapping "[{pcp: 0, stream: \"besteffort\"},\n                                                 {pcp: 4, stream: \"video\"}]"
config *.switch*.bridging.streamCoder.encoder.mapping "[{stream: \"besteffort\", pcp: 0},\n\t\t\t\t\t\t\t\t\t\t\t\t\t{stream: \"video\", pcp: 4}]"
config *.switch*.hasIngressTrafficFiltering true
config *.switch*.bridging.streamFilter.ingress.typename SimpleIeee8021qFilter
config *.switch*.bridging.streamFilter.ingress.numStreams 2
config *.switch*.bridging.streamFilter.ingress.classifier.mapping "{besteffort: 0, video: 1}"
config *.switch*.bridging.streamFilter.ingress.*[0].display-name besteffort
config *.switch*.bridging.streamFilter.ingress.*[1].display-name video
config *.switch*.bridging.streamFilter.ingress.meter[*].typename EligibilityTimeMeter
config *.switch*.bridging.streamFilter.ingress.meter[*].committedInformationRate 20Mbps
config *.switch*.bridging.streamFilter.ingress.meter[*].committedBurstSize 10kB
config *.switch*.bridging.streamFilter.ingress.filter[*].typename EligibilityTimeFilter
config *.switch*.hasEgressTrafficShaping true
config *.switch*.bridging.directionReverser.reverser.excludeEncapsulationProtocols "[\"ieee8021qctag\"]"
config *.switch*.eth[*].macLayer.queue.numTrafficClasses 2
config *.switch*.eth[*].macLayer.queue.*[0].display-name besteffort
config *.switch*.eth[*].macLayer.queue.*[1].display-name video
config *.switch*.eth[*].macLayer.queue.queue[0].typename EligibilityTimeQueue
config *.switch*.eth[*].macLayer.queue.queue[1].typename EligibilityTimeQueue
config *.switch*.eth[*].macLayer.queue.transmissionSelectionAlgorithm[0].typename Ieee8021qAsynchronousShaper
config *.switch*.eth[*].macLayer.queue.transmissionSelectionAlgorithm[0].idleSlope 42.68Mbps
config *.switch*.eth[*].macLayer.queue.transmissionSelectionAlgorithm[1].typename Ieee8021qAsynchronousShaper
config *.switch*.eth[*].macLayer.queue.transmissionSelectionAlgorithm[1].idleSlope 21.34Mbps
config **.downlink_interference true
config **.uplink_interference true
config **.ueTxPower 26
config **.eNodeBTxPower 46
config **.targetBler 0.01
config **.blerShift 5
config **.fbPeriod 40

scalar TrainTopology.gnb1.x2App[0].client ums 1452
scalar TrainTopology.gnb2.x2App[0].client ums 1452
par TrainTopology.TCUClient[0].ethg$o[0].channel typename "\"inet.node.ethernet.Eth1G\""
par TrainTopology.TCUClient[0].ethg$o[0].channel disabled false
attr mutable ""
par TrainTopology.TCUClient[0].ethg$o[0].channel delay 5e-08s
attr mutable ""
attr unit s
par TrainTopology.TCUClient[0].ethg$o[0].channel datarate 1e+09bps
attr mutable ""
attr unit bps
par TrainTopology.TCUClient[0].ethg$o[0].channel ber 0
attr mutable ""
par TrainTopology.TCUClient[0].ethg$o[0].channel per 0
attr mutable ""
par TrainTopology.TCUClient[0].ethg$o[0].channel length 10m
attr unit m
par TrainTopology.TCUUe[0].phys$o.channel typename "\"inet.node.ethernet.Eth1G\""
par TrainTopology.TCUUe[0].phys$o.channel disabled false
attr mutable ""
par TrainTopology.TCUUe[0].phys$o.channel delay 5e-08s
attr mutable ""
attr unit s
par TrainTopology.TCUUe[0].phys$o.channel datarate 1e+09bps
attr mutable ""
attr unit bps
par TrainTopology.TCUUe[0].phys$o.channel ber 0
attr mutable ""
par TrainTopology.TCUUe[0].phys$o.channel per 0
attr mutable ""
par TrainTopology.TCUUe[0].phys$o.channel length 10m
attr unit m
par TrainTopology.TCUClient[1].ethg$o[0].channel typename "\"inet.node.ethernet.Eth1G\""
par TrainTopology.TCUClient[1].ethg$o[0].channel disabled false
attr mutable ""
par TrainTopology.TCUClient[1].ethg$o[0].channel delay 5e-08s
attr mutable ""
attr unit s
par TrainTopology.TCUClient[1].ethg$o[0].channel datarate 1e+09bps
attr mutable ""
attr unit bps
par TrainTopology.TCUClient[1].ethg$o[0].channel ber 0
attr mutable ""
par TrainTopology.TCUClient[1].ethg$o[0].channel per 0
attr mutable ""
par TrainTopology.TCUClient[1].ethg$o[0].channel length 10m
attr unit m
par TrainTopology.TCUUe[1].phys$o.channel typename "\"inet.node.ethernet.Eth1G\""
par TrainTopology.TCUUe[1].phys$o.channel disabled false
attr mutable ""
par TrainTopology.TCUUe[1].phys$o.channel delay 5e-08s
attr mutable ""
attr unit s
par TrainTopology.TCUUe[1].phys$o.channel datarate 1e+09bps
attr mutable ""
attr unit bps
par TrainTopology.TCUUe[1].phys$o.channel ber 0
attr mutable ""
par TrainTopology.TCUUe[1].phys$o.channel per 0
attr mutable ""
par TrainTopology.TCUUe[1].phys$o.channel length 10m
attr unit m
par TrainTopology.TCUClient[2].ethg$o[0].channel typename "\"inet.node.ethernet.Eth1G\""
par TrainTopology.TCUClient[2].ethg$o[0].channel disabled false
attr mutable ""
par TrainTopology.TCUClient[2].ethg$o[0].channel delay 5e-08s
attr mutable ""
attr unit s
par TrainTopology.TCUClient[2].ethg$o[0].channel datarate 1e+09bps
attr mutable ""
attr unit bps
par TrainTopology.TCUClient[2].ethg$o[0].channel ber 0
attr mutable ""
par TrainTopology.TCUClient[2].ethg$o[0].channel per 0
attr mutable ""
par TrainTopology.TCUClient[2].ethg$o[0].channel length 10m
attr unit m
par TrainTopology.TCUUe[2].phys$o.channel typename "\"inet.node.ethernet.Eth1G\""
par TrainTopology.TCUUe[2].phys$o.channel disabled false
attr mutable ""
par TrainTopology.TCUUe[2].phys$o.channel delay 5e-08s
attr mutable ""
attr unit s
par TrainTopology.TCUUe[2].phys$o.channel datarate 1e+09bps
attr mutable ""
attr unit bps
par TrainTopology.TCUUe[2].phys$o.channel ber 0
attr mutable ""
par TrainTopology.TCUUe[2].phys$o.channel per 0
attr mutable ""
par TrainTopology.TCUUe[2].phys$o.channel length 10m
attr unit m
par TrainTopology.TCUClient[3].ethg$o[0].channel typename "\"inet.node.ethernet.Eth1G\""
par TrainTopology.TCUClient[3].ethg$o[0].channel disabled false
attr mutable ""
par TrainTopology.TCUClient[3].ethg$o[0].channel delay 5e-08s
attr mutable ""
attr unit s
par TrainTopology.TCUClient[3].ethg$o[0].channel datarate 1e+09bps
attr mutable ""
attr unit bps
par TrainTopology.TCUClient[3].ethg$o[0].channel ber 0
attr mutable ""
par TrainTopology.TCUClient[3].ethg$o[0].channel per 0
attr mutable ""
par TrainTopology.TCUClient[3].ethg$o[0].channel length 10m
attr unit m
par TrainTopology.TCUUe[3].phys$o.channel typename "\"inet.node.ethernet.Eth1G\""
par TrainTopology.TCUUe[3].phys$o.channel disabled false
attr mutable ""
par TrainTopology.TCUUe[3].phys$o.channel delay 5e-08s
attr mutable ""
attr unit s
par TrainTopology.TCUUe[3].phys$o.channel datarate 1e+09bps
attr mutable ""
attr unit bps
par TrainTopology.TCUUe[3].phys$o.channel ber 0
attr mutable ""
par TrainTopology.TCUUe[3].phys$o.channel per 0
attr mutable ""
par TrainTopology.TCUUe[3].phys$o.channel length 10m
attr unit m
par TrainTopology.BCUClient[0].ethg$o[0].channel typename "\"inet.node.ethernet.Eth1G\""
par TrainTopology.BCUClient[0].ethg$o[0].channel disabled false
attr mutable ""
par TrainTopology.BCUClient[0].ethg$o[0].channel delay 5e-08s
attr mutable ""
attr unit s
par TrainTopology.BCUClient[0].ethg$o[0].channel datarate 1e+09bps
attr mutable ""
attr unit bps
par TrainTopology.BCUClient[0].ethg$o[0].channel ber 0
attr mutable ""
par TrainTopology.BCUClient[0].ethg$o[0].channel per 0
attr mutable ""
par TrainTopology.BCUClient[0].ethg$o[0].channel length 10m
attr unit m
par TrainTopology.BCUUe[0].phys$o.channel typename "\"inet.node.ethernet.Eth1G\""
par TrainTopology.BCUUe[0].phys$o.channel disabled false
attr mutable ""
par TrainTopology.BCUUe[0].phys$o.channel delay 5e-08s
attr mutable ""
attr unit s
par TrainTopology.BCUUe[0].phys$o.channel datarate 1e+09bps
attr mutable ""
attr unit bps
par TrainTopology.BCUUe[0].phys$o.channel ber 0
attr mutable ""
par TrainTopology.BCUUe[0].phys$o.channel per 0
attr mutable ""
par TrainTopology.BCUUe[0].phys$o.channel length 10m
attr unit m
par TrainTopology.BCUClient[1].ethg$o[0].channel typename "\"inet.node.ethernet.Eth1G\""
par TrainTopology.BCUClient[1].ethg$o[0].channel disabled false
attr mutable ""
par TrainTopology.BCUClient[1].ethg$o[0].channel delay 5e-08s
attr mutable ""
attr unit s
par TrainTopology.BCUClient[1].ethg$o[0].channel datarate 1e+09bps
attr mutable ""
attr unit bps
par TrainTopology.BCUClient[1].ethg$o[0].channel ber 0
attr mutable ""
par TrainTopology.BCUClient[1].ethg$o[0].channel per 0
attr mutable ""
par TrainTopology.BCUClient[1].ethg$o[0].channel length 10m
attr unit m
par TrainTopology.BCUUe[1].phys$o.channel typename "\"inet.node.ethernet.Eth1G\""
par TrainTopology.BCUUe[1].phys$o.channel disabled false
attr mutable ""
par TrainTopology.BCUUe[1].phys$o.channel delay 5e-08s
attr mutable ""
attr unit s
par TrainTopology.BCUUe[1].phys$o.channel datarate 1e+09bps
attr mutable ""
attr unit bps
par TrainTopology.BCUUe[1].phys$o.channel ber 0
attr mutable ""
par TrainTopology.BCUUe[1].phys$o.channel per 0
attr mutable ""
par TrainTopology.BCUUe[1].phys$o.channel length 10m
attr unit m
par TrainTopology.BCUClient[2].ethg$o[0].channel typename "\"inet.node.ethernet.Eth1G\""
par TrainTopology.BCUClient[2].ethg$o[0].channel disabled false
attr mutable ""
par TrainTopology.BCUClient[2].ethg$o[0].channel delay 5e-08s
attr mutable ""
attr unit s
par TrainTopology.BCUClient[2].ethg$o[0].channel datarate 1e+09bps
attr mutable ""
attr unit bps
par TrainTopology.BCUClient[2].ethg$o[0].channel ber 0
attr mutable ""
par TrainTopology.BCUClient[2].ethg$o[0].channel per 0
attr mutable ""
par TrainTopology.BCUClient[2].ethg$o[0].channel length 10m
attr unit m
par TrainTopology.BCUUe[2].phys$o.channel typename "\"inet.node.ethernet.Eth1G\""
par TrainTopology.BCUUe[2].phys$o.channel disabled false
attr mutable ""
par TrainTopology.BCUUe[2].phys$o.channel delay 5e-08s
attr mutable ""
attr unit s
par TrainTopology.BCUUe[2].phys$o.channel datarate 1e+09bps
attr mutable ""
attr unit bps
par TrainTopology.BCUUe[2].phys$o.channel ber 0
attr mutable ""
par TrainTopology.BCUUe[2].phys$o.channel per 0
attr mutable ""
par TrainTopology.BCUUe[2].phys$o.channel length 10m
attr unit m
par TrainTopology.BCUClient[3].ethg$o[0].channel typename "\"inet.node.ethernet.Eth1G\""
par TrainTopology.BCUClient[3].ethg$o[0].channel disabled false
attr mutable ""
par TrainTopology.BCUClient[3].ethg$o[0].channel delay 5e-08s
attr mutable ""
attr unit s
par TrainTopology.BCUClient[3].ethg$o[0].channel datarate 1e+09bps
attr mutable ""
attr unit bps
par TrainTopology.BCUClient[3].ethg$o[0].channel ber 0
attr mutable ""
par TrainTopology.BCUClient[3].ethg$o[0].channel per 0
attr mutable ""
par TrainTopology.BCUClient[3].ethg$o[0].channel length 10m
attr unit m
par TrainTopology.BCUUe[3].phys$o.channel typename "\"inet.node.ethernet.Eth1G\""
par TrainTopology.BCUUe[3].phys$o.channel disabled false
attr mutable ""
par TrainTopology.BCUUe[3].phys$o.channel delay 5e-08s
attr mutable ""
attr unit s
par TrainTopology.BCUUe[3].phys$o.channel datarate 1e+09bps
attr mutable ""
attr unit bps
par TrainTopology.BCUUe[3].phys$o.channel ber 0
attr mutable ""
par TrainTopology.BCUUe[3].phys$o.channel per 0
attr mutable ""
par TrainTopology.BCUUe[3].phys$o.channel length 10m
attr unit m
par TrainTopology.switch1.ethg$o[0].channel typename "\"inet.node.ethernet.Eth1G\""
par TrainTopology.switch1.ethg$o[0].channel disabled false
attr mutable ""
par TrainTopology.switch1.ethg$o[0].channel delay 5e-08s
attr mutable ""
attr unit s
par TrainTopology.switch1.ethg$o[0].channel datarate 1e+09bps
attr mutable ""
attr unit bps
par TrainTopology.switch1.ethg$o[0].channel ber 0
attr mutable ""
par TrainTopology.switch1.ethg$o[0].channel per 0
attr mutable ""
par TrainTopology.switch1.ethg$o[0].channel length 10m
attr unit m
par TrainTopology.switch3.ethg$o[0].channel typename "\"inet.node.ethernet.Eth1G\""
par TrainTopology.switch3.ethg$o[0].channel disabled false
attr mutable ""
par TrainTopology.switch3.ethg$o[0].channel delay 5e-08s
attr mutable ""
attr unit s
par TrainTopology.switch3.ethg$o[0].channel datarate 1e+09bps
attr mutable ""
attr unit bps
par TrainTopology.switch3.ethg$o[0].channel ber 0
attr mutable ""
par TrainTopology.switch3.ethg$o[0].channel per 0
attr mutable ""
par TrainTopology.switch3.ethg$o[0].channel length 10m
attr unit m
par TrainTopology.switch3.ethg$o[1].channel typename "\"inet.node.ethernet.Eth1G\""
par TrainTopology.switch3.ethg$o[1].channel disabled false
attr mutable ""
par TrainTopology.switch3.ethg$o[1].channel delay 5e-08s
attr mutable ""
attr unit s
par TrainTopology.switch3.ethg$o[1].channel datarate 1e+09bps
attr mutable ""
attr unit bps
par TrainTopology.switch3.ethg$o[1].channel ber 0
attr mutable ""
par TrainTopology.switch3.ethg$o[1].channel per 0
attr mutable ""
par TrainTopology.switch3.ethg$o[1].channel length 10m
attr unit m
par TrainTopology.switch2.ethg$o[0].channel typename "\"inet.node.ethernet.Eth1G\""
par TrainTopology.switch2.ethg$o[0].channel disabled false
attr mutable ""
par TrainTopology.switch2.ethg$o[0].channel delay 5e-08s
attr mutable ""
attr unit s
par TrainTopology.switch2.ethg$o[0].channel datarate 1e+09bps
attr mutable ""
attr unit bps
par TrainTopology.switch2.ethg$o[0].channel ber 0
attr mutable ""
par TrainTopology.switch2.ethg$o[0].channel per 0
attr mutable ""
par TrainTopology.switch2.ethg$o[0].channel length 10m
attr unit m
par TrainTopology.switch1.ethg$o[1].channel typename "\"inet.node.ethernet.Eth1G\""
par TrainTopology.switch1.ethg$o[1].channel disabled false
attr mutable ""
par TrainTopology.switch1.ethg$o[1].channel delay 5e-08s
attr mutable ""
attr unit s
par TrainTopology.switch1.ethg$o[1].channel datarate 1e+09bps
attr mutable ""
attr unit bps
par TrainTopology.switch1.ethg$o[1].channel ber 0
attr mutable ""
par TrainTopology.switch1.ethg$o[1].channel per 0
attr mutable ""
par TrainTopology.switch1.ethg$o[1].channel length 10m
attr unit m
par TrainTopology.upf1.filterGate$o.channel typename "\"inet.node.ethernet.Eth1G\""
par TrainTopology.upf1.filterGate$o.channel disabled false
attr mutable ""
par TrainTopology.upf1.filterGate$o.channel delay 5e-08s
attr mutable ""
attr unit s
par TrainTopology.upf1.filterGate$o.channel datarate 1e+09bps
attr mutable ""
attr unit bps
par TrainTopology.upf1.filterGate$o.channel ber 0
attr mutable ""
par TrainTopology.upf1.filterGate$o.channel per 0
attr mutable ""
par TrainTopology.upf1.filterGate$o.channel length 10m
attr unit m
par TrainTopology.switch2.ethg$o[1].channel typename "\"inet.node.ethernet.Eth1G\""
par TrainTopology.switch2.ethg$o[1].channel disabled false
attr mutable ""
par TrainTopology.switch2.ethg$o[1].channel delay 5e-08s
attr mutable ""
attr unit s
par TrainTopology.switch2.ethg$o[1].channel datarate 1e+09bps
attr mutable ""
attr unit bps
par TrainTopology.switch2.ethg$o[1].channel ber 0
attr mutable ""
par TrainTopology.switch2.ethg$o[1].channel per 0
attr mutable ""
par TrainTopology.switch2.ethg$o[1].channel length 10m
attr unit m
par TrainTopology.upf2.filterGate$o.channel typename "\"inet.node.ethernet.Eth1G\""
par TrainTopology.upf2.filterGate$o.channel disabled false
attr mutable ""
par TrainTopology.upf2.filterGate$o.channel delay 5e-08s
attr mutable ""
attr unit s
par TrainTopology.upf2.filterGate$o.channel datarate 1e+09bps
attr mutable ""
attr unit bps
par TrainTopology.upf2.filterGate$o.channel ber 0
attr mutable ""
par TrainTopology.upf2.filterGate$o.channel per 0
attr mutable ""
par TrainTopology.upf2.filterGate$o.channel length 10m
attr unit m
par TrainTopology.gnb1.x2$o[0].channel typename "\"inet.node.ethernet.Eth1G\""
par TrainTopology.gnb1.x2$o[0].channel disabled false
attr mutable ""
par TrainTopology.gnb1.x2$o[0].channel delay 5e-08s
attr mutable ""
attr unit s
par TrainTopology.gnb1.x2$o[0].channel datarate 1e+09bps
attr mutable ""
attr unit bps
par TrainTopology.gnb1.x2$o[0].channel ber 0
attr mutable ""
par TrainTopology.gnb1.x2$o[0].channel per 0
attr mutable ""
par TrainTopology.gnb1.x2$o[0].channel length 10m
attr unit m
par TrainTopology.gnb2.x2$o[0].channel typename "\"inet.node.ethernet.Eth1G\""
par TrainTopology.gnb2.x2$o[0].channel disabled false
attr mutable ""
par TrainTopology.gnb2.x2$o[0].channel delay 5e-08s
attr mutable ""
attr unit s
par TrainTopology.gnb2.x2$o[0].channel datarate 1e+09bps
attr mutable ""
attr unit bps
par TrainTopology.gnb2.x2$o[0].channel ber 0
attr mutable ""
par TrainTopology.gnb2.x2$o[0].channel per 0
attr mutable ""
par TrainTopology.gnb2.x2$o[0].channel length 10m
attr unit m
par TrainTopology.gnb1.ppp$o.channel typename "\"inet.node.ethernet.Eth1G\""
par TrainTopology.gnb1.ppp$o.channel disabled false
attr mutable ""
par TrainTopology.gnb1.ppp$o.channel delay 5e-08s
attr mutable ""
attr unit s
par TrainTopology.gnb1.ppp$o.channel datarate 1e+09bps
attr mutable ""
attr unit bps
par TrainTopology.gnb1.ppp$o.channel ber 0
attr mutable ""
par TrainTopology.gnb1.ppp$o.channel per 0
attr mutable ""
par TrainTopology.gnb1.ppp$o.channel length 10m
attr unit m
par TrainTopology.upf1.pppg$o[0].channel typename "\"inet.node.ethernet.Eth1G\""
par TrainTopology.upf1.pppg$o[0].channel disabled false
attr mutable ""
par TrainTopology.upf1.pppg$o[0].channel delay 5e-08s
attr mutable ""
attr unit s
par TrainTopology.upf1.pppg$o[0].channel datarate 1e+09bps
attr mutable ""
attr unit bps
par TrainTopology.upf1.pppg$o[0].channel ber 0
attr mutable ""
par TrainTopology.upf1.pppg$o[0].channel per 0
attr mutable ""
par TrainTopology.upf1.pppg$o[0].channel length 10m
attr unit m
par TrainTopology.gnb2.ppp$o.channel typename "\"inet.node.ethernet.Eth1G\""
par TrainTopology.gnb2.ppp$o.channel disabled false
attr mutable ""
par TrainTopology.gnb2.ppp$o.channel delay 5e-08s
attr mutable ""
attr unit s
par TrainTopology.gnb2.ppp$o.channel datarate 1e+09bps
attr mutable ""
attr unit bps
par TrainTopology.gnb2.ppp$o.channel ber 0
attr mutable ""
par TrainTopology.gnb2.ppp$o.channel per 0
attr mutable ""
par TrainTopology.gnb2.ppp$o.channel length 10m
attr unit m
par TrainTopology.upf2.pppg$o[0].channel typename "\"inet.node.ethernet.Eth1G\""
par TrainTopology.upf2.pppg$o[0].channel disabled false
attr mutable ""
par TrainTopology.upf2.pppg$o[0].channel delay 5e-08s
attr mutable ""
attr unit s
par TrainTopology.upf2.pppg$o[0].channel datarate 1e+09bps
attr mutable ""
attr unit bps
par TrainTopology.upf2.pppg$o[0].channel ber 0
attr mutable ""
par TrainTopology.upf2.pppg$o[0].channel per 0
attr mutable ""
par TrainTopology.upf2.pppg$o[0].channel length 10m
attr unit m
par TrainTopology.switch3.ethg$o[2].channel typename "\"inet.node.ethernet.Eth1G\""
par TrainTopology.switch3.ethg$o[2].channel disabled false
attr mutable ""
par TrainTopology.switch3.ethg$o[2].channel delay 5e-08s
attr mutable ""
attr unit s
par TrainTopology.switch3.ethg$o[2].channel datarate 1e+09bps
attr mutable ""
attr unit bps
par TrainTopology.switch3.ethg$o[2].channel ber 0
attr mutable ""
par TrainTopology.switch3.ethg$o[2].channel per 0
attr mutable ""
par TrainTopology.switch3.ethg$o[2].channel length 10m
attr unit m
par TrainTopology.server.ethg$o[0].channel typename "\"inet.node.ethernet.Eth1G\""
par TrainTopology.server.ethg$o[0].channel disabled false
attr mutable ""
par TrainTopology.server.ethg$o[0].channel delay 5e-08s
attr mutable ""
attr unit s
par TrainTopology.server.ethg$o[0].channel datarate 1e+09bps
attr mutable ""
attr unit bps
par TrainTopology.server.ethg$o[0].channel ber 0
attr mutable ""
par TrainTopology.server.ethg$o[0].channel per 0
attr mutable ""
par TrainTopology.server.ethg$o[0].channel length 10m
attr unit m
par TrainTopology.carrierAggregation.componentCarrier[0] typename "\"simu5g.common.carrierAggregation.ComponentCarrier\""
par TrainTopology.carrierAggregation.componentCarrier[0] carrierFrequency 2GHz
attr unit GHz
par TrainTopology.carrierAggregation.componentCarrier[0] numBands 6
par TrainTopology.carrierAggregation.componentCarrier[0] numerologyIndex 0
par TrainTopology.carrierAggregation.componentCarrier[0] useTdd false
par TrainTopology.carrierAggregation.componentCarrier[0] tddNumSymbolsDl 7
par TrainTopology.carrierAggregation.componentCarrier[0] tddNumSymbolsUl 7
par TrainTopology.carrierAggregation typename "\"simu5g.common.carrierAggregation.CarrierAggregation\""
par TrainTopology.carrierAggregation numComponentCarriers 1
par TrainTopology.channelControl typename "\"simu5g.world.radio.LteChannelControl\""
par TrainTopology.channelControl coreDebug false
par TrainTopology.channelControl pMax 20mW
attr unit mW
par TrainTopology.channelControl sat -110dBm
attr unit dBm
par TrainTopology.channelControl alpha 2
par TrainTopology.channelControl carrierFrequency 2.4e+09Hz
attr unit Hz
par TrainTopology.channelControl numChannels 1
par TrainTopology.channelControl propagationModel "\"FreeSpaceModel\""
attr enum FreeSpaceModel,TwoRayGroundModel,RiceModel,RayleighModel,NakagamiModel,LogNormalShadowingModel
par TrainTopology.routingRecorder typename "\"inet.networklayer.ipv4.RoutingTableRecorder\""
par TrainTopology.routingRecorder enabled true
par TrainTopology.binder typename "\"simu5g.common.binder.Binder\""
par TrainTopology.binder blerShift 5
par TrainTopology.binder maxDataRatePerRb 1.16Mbps
attr unit Mbps
par TrainTopology.binder printTrafficGeneratorConfig false
par TrainTopology.server.ethg$i[0].channel typename "\"ned.IdealChannel\""
par TrainTopology.server.eth[0].phys$o.channel typename "\"ned.IdealChannel\""
par TrainTopology.server.interfaceTable typename "\"inet.networklayer.common.InterfaceTable\""
par TrainTopology.server.interfaceTable displayAddresses false
par TrainTopology.server.cb typename "\"inet.common.MessageDispatcher\""
par TrainTopology.server.cb displayStringTextFormat "\"processed %p pk (%l)\""
par TrainTopology.server.cb forwardServiceRegistration true
par TrainTopology.server.cb forwardProtocolRegistration true
par TrainTopology.server.bridging.directionReverser.upperLayerIn.channel typename "\"ned.IdealChannel\""
par TrainTopology.server.bridging.directionReverser.join.out.channel typename "\"ned.IdealChannel\""
par TrainTopology.server.bridging.directionReverser.lowerLayerIn.channel typename "\"ned.IdealChannel\""
par TrainTopology.server.bridging.directionReverser.fork.out[0].channel typename "\"ned.IdealChannel\""
par TrainTopology.server.bridging.directionReverser.fork typename "\"inet.common.MessageDispatcher\""
par TrainTopology.server.bridging.directionReverser.fork displayStringTextFormat "\"processed %p pk (%l)\""
par TrainTopology.server.bridging.directionReverser.fork forwardServiceRegistration false
par TrainTopology.server.bridging.directionReverser.fork forwardProtocolRegistration true
par TrainTopology.server.bridging.directionReverser.reverser typename "\"inet.linklayer.ethernet.common.PacketDirectionReverser\""
par TrainTopology.server.bridging.directionReverser.reverser displayStringTextFormat "\"processed %p pk (%l)\""
par TrainTopology.server.bridging.directionReverser.reverser forwardVlan true
par TrainTopology.server.bridging.directionReverser.reverser forwardPcp true
par TrainTopology.server.bridging.directionReverser.reverser excludeEncapsulationProtocols []
scalar TrainTopology.server.bridging.directionReverser.reverser outgoingPackets:count 0
attr recordingmode count
attr source "merge(packetPushedOut, packetPulledOut)"
attr title "outgoing packets, count"
attr unit pk
scalar TrainTopology.server.bridging.directionReverser.reverser outgoingPacketLengths:sum 0
attr interpolationmode none
attr recordingmode sum
attr source "packetLength(merge(packetPushedOut, packetPulledOut))"
attr title "outgoing packet lengths, sum"
attr unit b
statistic TrainTopology.server.bridging.directionReverser.reverser outgoingPacketLengths:histogram
field count 0
field mean -nan
field stddev nan
field min nan
field max nan
field sum 0
field sqrsum 0
attr interpolationmode none
attr recordingmode histogram
attr source "packetLength(merge(packetPushedOut, packetPulledOut))"
attr title "outgoing packet lengths"
attr unit b
bin	-inf	0
bin	0	0
bin	1	0
scalar TrainTopology.server.bridging.directionReverser.reverser flowOutgoingPacketLengths:sum 0
attr interpolationmode none
attr recordingmode sum
attr source "packetLength(demuxFlow(merge(packetPushedOut, packetPulledOut)))"
attr title "flow specific outgoing packet lengths, sum"
attr unit b
statistic TrainTopology.server.bridging.directionReverser.reverser flowOutgoingPacketLengths:histogram
field count 0
field mean -nan
field stddev nan
field min nan
field max nan
field sum 0
field sqrsum 0
attr interpolationmode none
attr recordingmode histogram
attr source "packetLength(demuxFlow(merge(packetPushedOut, packetPulledOut)))"
attr title "flow specific outgoing packet lengths"
attr unit b
bin	-inf	0
bin	0	0
bin	1	0
scalar TrainTopology.server.bridging.directionReverser.reverser incomingPackets:count 0
attr recordingmode count
attr source "merge(packetPushedIn, packetPulledIn)"
attr title "incoming packets, count"
attr unit pk
scalar TrainTopology.server.bridging.directionReverser.reverser incomingPacketLengths:sum 0
attr interpolationmode none
attr recordingmode sum
attr source "packetLength(merge(packetPushedIn, packetPulledIn))"
attr title "incoming packet lengths, sum"
attr unit b
statistic TrainTopology.server.bridging.directionReverser.reverser incomingPacketLengths:histogram
field count 0
field mean -nan
field stddev nan
field min nan
field max nan
field sum 0
field sqrsum 0
attr interpolationmode none
attr recordingmode histogram
attr source "packetLength(merge(packetPushedIn, packetPulledIn))"
attr title "incoming packet lengths"
attr unit b
bin	-inf	0
bin	0	0
bin	1	0
scalar TrainTopology.server.bridging.directionReverser.reverser flowIncomingPacketLengths:sum 0
attr interpolationmode none
attr recordingmode sum
attr source "packetLength(demuxFlow(merge(packetPushedIn, packetPulledIn)))"
attr title "flow specific incoming packet lengths, sum"
attr unit b
statistic TrainTopology.server.bridging.directionReverser.reverser flowIncomingPacketLengths:histogram
field count 0
field mean -nan
field stddev nan
field min nan
field max nan
field sum 0
field sqrsum 0
attr interpolationmode none
attr recordingmode histogram
attr source "packetLength(demuxFlow(merge(packetPushedIn, packetPulledIn)))"
attr title "flow specific incoming packet lengths"
attr unit b
bin	-inf	0
bin	0	0
bin	1	0
par TrainTopology.server.bridging.directionReverser.join typename "\"inet.queueing.common.PacketMultiplexer\""
par TrainTopology.server.bridging.directionReverser.join displayStringTextFormat "\"passed %p pk (%l)\""
par TrainTopology.server.bridging.directionReverser.join forwardServiceRegistration true
par TrainTopology.server.bridging.directionReverser.join forwardProtocolRegistration false
scalar TrainTopology.server.bridging.directionReverser.join packets:count 0
attr recordingmode count
attr source "merge(packetPushed, packetPulled)"
attr title "packets, count"
attr unit pk
scalar TrainTopology.server.bridging.directionReverser.join packetLengths:sum 0
attr interpolationmode none
attr recordingmode sum
attr source "packetLength(merge(packetPushed, packetPulled))"
attr title "packet lengths, sum"
attr unit b
statistic TrainTopology.server.bridging.directionReverser.join packetLengths:histogram
field count 0
field mean -nan
field stddev nan
field min nan
field max nan
field sum 0
field sqrsum 0
attr interpolationmode none
attr recordingmode histogram
attr source "packetLength(merge(packetPushed, packetPulled))"
attr title "packet lengths"
attr unit b
bin	-inf	0
bin	0	0
bin	1	0
par TrainTopology.server.bridging.directionReverser typename "\"inet.linklayer.ethernet.common.DirectionReverserLayer\""
par TrainTopology.server.bridging.streamIdentifier.upperLayerIn.channel typename "\"ned.IdealChannel\""
par TrainTopology.server.bridging.streamIdentifier.identifier.out.channel typename "\"ned.IdealChannel\""
par TrainTopology.server.bridging.streamIdentifier.identifier typename "\"inet.protocolelement.redundancy.StreamIdentifier\""
par TrainTopology.server.bridging.streamIdentifier.identifier displayStringTextFormat "\"processed %p pk (%l)\""
par TrainTopology.server.bridging.streamIdentifier.identifier hasSequenceNumbering false
par TrainTopology.server.bridging.streamIdentifier.identifier mapping "[{packetFilter: (omnetpp::cOwnedDynamicExpression)mapping.array2.map1., stream: \"besteffort\"}, {packetFilter: (omnetpp::cOwnedDynamicExpression)mapping.array2.map2., stream: \"video\"}]"
attr mutable ""
scalar TrainTopology.server.bridging.streamIdentifier.identifier outgoingPackets:count 0
attr recordingmode count
attr source "merge(packetPushedOut, packetPulledOut)"
attr title "outgoing packets, count"
attr unit pk
scalar TrainTopology.server.bridging.streamIdentifier.identifier outgoingPacketLengths:sum 0
attr interpolationmode none
attr recordingmode sum
attr source "packetLength(merge(packetPushedOut, packetPulledOut))"
attr title "outgoing packet lengths, sum"
attr unit b
statistic TrainTopology.server.bridging.streamIdentifier.identifier outgoingPacketLengths:histogram
field count 0
field mean -nan
field stddev nan
field min nan
field max nan
field sum 0
field sqrsum 0
attr interpolationmode none
attr recordingmode histogram
attr source "packetLength(merge(packetPushedOut, packetPulledOut))"
attr title "outgoing packet lengths"
attr unit b
bin	-inf	0
bin	0	0
bin	1	0
scalar TrainTopology.server.bridging.streamIdentifier.identifier flowOutgoingPacketLengths:sum 0
attr interpolationmode none
attr recordingmode sum
attr source "packetLength(demuxFlow(merge(packetPushedOut, packetPulledOut)))"
attr title "flow specific outgoing packet lengths, sum"
attr unit b
statistic TrainTopology.server.bridging.streamIdentifier.identifier flowOutgoingPacketLengths:histogram
field count 0
field mean -nan
field stddev nan
field min nan
field max nan
field sum 0
field sqrsum 0
attr interpolationmode none
attr recordingmode histogram
attr source "packetLength(demuxFlow(merge(packetPushedOut, packetPulledOut)))"
attr title "flow specific outgoing packet lengths"
attr unit b
bin	-inf	0
bin	0	0
bin	1	0
scalar TrainTopology.server.bridging.streamIdentifier.identifier incomingPackets:count 0
attr recordingmode count
attr source "merge(packetPushedIn, packetPulledIn)"
attr title "incoming packets, count"
attr unit pk
scalar TrainTopology.server.bridging.streamIdentifier.identifier incomingPacketLengths:sum 0
attr interpolationmode none
attr recordingmode sum
attr source "packetLength(merge(packetPushedIn, packetPulledIn))"
attr title "incoming packet lengths, sum"
attr unit b
statistic TrainTopology.server.bridging.streamIdentifier.identifier incomingPacketLengths:histogram
field count 0
field mean -nan
field stddev nan
field min nan
field max nan
field sum 0
field sqrsum 0
attr interpolationmode none
attr recordingmode histogram
attr source "packetLength(merge(packetPushedIn, packetPulledIn))"
attr title "incoming packet lengths"
attr unit b
bin	-inf	0
bin	0	0
bin	1	0
scalar TrainTopology.server.bridging.streamIdentifier.identifier flowIncomingPacketLengths:sum 0
attr interpolationmode none
attr recordingmode sum
attr source "packetLength(demuxFlow(merge(packetPushedIn, packetPulledIn)))"
attr title "flow specific incoming packet lengths, sum"
attr unit b
statistic TrainTopology.server.bridging.streamIdentifier.identifier flowIncomingPacketLengths:histogram
field count 0
field mean -nan
field stddev nan
field min nan
field max nan
field sum 0
field sqrsum 0
attr interpolationmode none
attr recordingmode histogram
attr source "packetLength(demuxFlow(merge(packetPushedIn, packetPulledIn)))"
attr title "flow specific incoming packet lengths"
attr unit b
bin	-inf	0
bin	0	0
bin	1	0
par TrainTopology.server.bridging.streamIdentifier typename "\"inet.protocolelement.redundancy.StreamIdentifierLayer\""
par TrainTopology.server.bridging.streamCoder.upperLayerIn.channel typename "\"ned.IdealChannel\""
par TrainTopology.server.bridging.streamCoder.encoder.out.channel typename "\"ned.IdealChannel\""
par TrainTopology.server.bridging.streamCoder.lowerLayerIn.channel typename "\"ned.IdealChannel\""
par TrainTopology.server.bridging.streamCoder.decoder.out.channel typename "\"ned.IdealChannel\""
par TrainTopology.server.bridging.streamCoder.decoder typename "\"inet.protocolelement.redundancy.StreamDecoder\""
par TrainTopology.server.bridging.streamCoder.decoder displayStringTextFormat "\"processed %p pk (%l)\""
par TrainTopology.server.bridging.streamCoder.decoder interfaceTableModule "\"TrainTopology.server.interfaceTable\""
par TrainTopology.server.bridging.streamCoder.decoder mapping []
attr mutable ""
scalar TrainTopology.server.bridging.streamCoder.decoder outgoingPackets:count 25
attr recordingmode count
attr source "merge(packetPushedOut, packetPulledOut)"
attr title "outgoing packets, count"
attr unit pk
scalar TrainTopology.server.bridging.streamCoder.decoder outgoingPacketLengths:sum 10400
attr interpolationmode none
attr recordingmode sum
attr source "packetLength(merge(packetPushedOut, packetPulledOut))"
attr title "outgoing packet lengths, sum"
attr unit b
statistic TrainTopology.server.bridging.streamCoder.decoder outgoingPacketLengths:histogram
field count 25
field mean 416
field stddev 40
field min 384
field max 464
field sum 10400
field sqrsum 4364800
attr interpolationmode none
attr recordingmode histogram
attr source "packetLength(merge(packetPushedOut, packetPulledOut))"
attr title "outgoing packet lengths"
attr unit b
bin	-inf	0
bin	364	0
bin	366	0
bin	368	0
bin	370	0
bin	372	0
bin	374	0
bin	376	0
bin	378	0
bin	380	0
bin	382	0
bin	384	15
bin	386	0
bin	388	0
bin	390	0
bin	392	0
bin	394	0
bin	396	0
bin	398	0
bin	400	0
bin	402	0
bin	404	0
bin	406	0
bin	408	0
bin	410	0
bin	412	0
bin	414	0
bin	416	0
bin	418	0
bin	420	0
bin	422	0
bin	424	0
bin	426	0
bin	428	0
bin	430	0
bin	432	0
bin	434	0
bin	436	0
bin	438	0
bin	440	0
bin	442	0
bin	444	0
bin	446	0
bin	448	0
bin	450	0
bin	452	0
bin	454	0
bin	456	0
bin	458	0
bin	460	0
bin	462	0
bin	464	10
bin	466	0
bin	468	0
bin	470	0
bin	472	0
bin	474	0
bin	476	0
bin	478	0
bin	480	0
bin	482	0
bin	484	0
scalar TrainTopology.server.bridging.streamCoder.decoder flowOutgoingPacketLengths:sum 0
attr interpolationmode none
attr recordingmode sum
attr source "packetLength(demuxFlow(merge(packetPushedOut, packetPulledOut)))"
attr title "flow specific outgoing packet lengths, sum"
attr unit b
statistic TrainTopology.server.bridging.streamCoder.decoder flowOutgoingPacketLengths:histogram
field count 0
field mean -nan
field stddev nan
field min nan
field max nan
field sum 0
field sqrsum 0
attr interpolationmode none
attr recordingmode histogram
attr source "packetLength(demuxFlow(merge(packetPushedOut, packetPulledOut)))"
attr title "flow specific outgoing packet lengths"
attr unit b
bin	-inf	0
bin	0	0
bin	1	0
scalar TrainTopology.server.bridging.streamCoder.decoder incomingPackets:count 25
attr recordingmode count
attr source "merge(packetPushedIn, packetPulledIn)"
attr title "incoming packets, count"
attr unit pk
scalar TrainTopology.server.bridging.streamCoder.decoder incomingPacketLengths:sum 10400
attr interpolationmode none
attr recordingmode sum
attr source "packetLength(merge(packetPushedIn, packetPulledIn))"
attr title "incoming packet lengths, sum"
attr unit b
statistic TrainTopology.server.bridging.streamCoder.decoder incomingPacketLengths:histogram
field count 25
field mean 416
field stddev 40
field min 384
field max 464
field sum 10400
field sqrsum 4364800
attr interpolationmode none
attr recordingmode histogram
attr source "packetLength(merge(packetPushedIn, packetPulledIn))"
attr title "incoming packet lengths"
attr unit b
bin	-inf	0
bin	364	0
bin	366	0
bin	368	0
bin	370	0
bin	372	0
bin	374	0
bin	376	0
bin	378	0
bin	380	0
bin	382	0
bin	384	15
bin	386	0
bin	388	0
bin	390	0
bin	392	0
bin	394	0
bin	396	0
bin	398	0
bin	400	0
bin	402	0
bin	404	0
bin	406	0
bin	408	0
bin	410	0
bin	412	0
bin	414	0
bin	416	0
bin	418	0
bin	420	0
bin	422	0
bin	424	0
bin	426	0
bin	428	0
bin	430	0
bin	432	0
bin	434	0
bin	436	0
bin	438	0
bin	440	0
bin	442	0
bin	444	0
bin	446	0
bin	448	0
bin	450	0
bin	452	0
bin	454	0
bin	456	0
bin	458	0
bin	460	0
bin	462	0
bin	464	10
bin	466	0
bin	468	0
bin	470	0
bin	472	0
bin	474	0
bin	476	0
bin	478	0
bin	480	0
bin	482	0
bin	484	0
scalar TrainTopology.server.bridging.streamCoder.decoder flowIncomingPacketLengths:sum 0
attr interpolationmode none
attr recordingmode sum
attr source "packetLength(demuxFlow(merge(packetPushedIn, packetPulledIn)))"
attr title "flow specific incoming packet lengths, sum"
attr unit b
statistic TrainTopology.server.bridging.streamCoder.decoder flowIncomingPacketLengths:histogram
field count 0
field mean -nan
field stddev nan
field min nan
field max nan
field sum 0
field sqrsum 0
attr interpolationmode none
attr recordingmode histogram
attr source "packetLength(demuxFlow(merge(packetPushedIn, packetPulledIn)))"
attr title "flow specific incoming packet lengths"
attr unit b
bin	-inf	0
bin	0	0
bin	1	0
par TrainTopology.server.bridging.streamCoder.encoder typename "\"inet.protocolelement.redundancy.StreamEncoder\""
par TrainTopology.server.bridging.streamCoder.encoder displayStringTextFormat "\"processed %p pk (%l)\""
par TrainTopology.server.bridging.streamCoder.encoder mapping "[{pcp: 0, stream: \"besteffort\"}, {pcp: 4, stream: \"video\"}]"
attr mutable ""
scalar TrainTopology.server.bridging.streamCoder.encoder outgoingPackets:count 0
attr recordingmode count
attr source "merge(packetPushedOut, packetPulledOut)"
attr title "outgoing packets, count"
attr unit pk
scalar TrainTopology.server.bridging.streamCoder.encoder outgoingPacketLengths:sum 0
attr interpolationmode none
attr recordingmode sum
attr source "packetLength(merge(packetPushedOut, packetPulledOut))"
attr title "outgoing packet lengths, sum"
attr unit b
statistic TrainTopology.server.bridging.streamCoder.encoder outgoingPacketLengths:histogram
field count 0
field mean -nan
field stddev nan
field min nan
field max nan
field sum 0
field sqrsum 0
attr interpolationmode none
attr recordingmode histogram
attr source "packetLength(merge(packetPushedOut, packetPulledOut))"
attr title "outgoing packet lengths"
attr unit b
bin	-inf	0
bin	0	0
bin	1	0
scalar TrainTopology.server.bridging.streamCoder.encoder flowOutgoingPacketLengths:sum 0
attr interpolationmode none
attr recordingmode sum
attr source "packetLength(demuxFlow(merge(packetPushedOut, packetPulledOut)))"
attr title "flow specific outgoing packet lengths, sum"
attr unit b
statistic TrainTopology.server.bridging.streamCoder.encoder flowOutgoingPacketLengths:histogram
field count 0
field mean -nan
field stddev nan
field min nan
field max nan
field sum 0
field sqrsum 0
attr interpolationmode none
attr recordingmode histogram
attr source "packetLength(demuxFlow(merge(packetPushedOut, packetPulledOut)))"
attr title "flow specific outgoing packet lengths"
attr unit b
bin	-inf	0
bin	0	0
bin	1	0
scalar TrainTopology.server.bridging.streamCoder.encoder incomingPackets:count 0
attr recordingmode count
attr source "merge(packetPushedIn, packetPulledIn)"
attr title "incoming packets, count"
attr unit pk
scalar TrainTopology.server.bridging.streamCoder.encoder incomingPacketLengths:sum 0
attr interpolationmode none
attr recordingmode sum
attr source "packetLength(merge(packetPushedIn, packetPulledIn))"
attr title "incoming packet lengths, sum"
attr unit b
statistic TrainTopology.server.bridging.streamCoder.encoder incomingPacketLengths:histogram
field count 0
field mean -nan
field stddev nan
field min nan
field max nan
field sum 0
field sqrsum 0
attr interpolationmode none
attr recordingmode histogram
attr source "packetLength(merge(packetPushedIn, packetPulledIn))"
attr title "incoming packet lengths"
attr unit b
bin	-inf	0
bin	0	0
bin	1	0
scalar TrainTopology.server.bridging.streamCoder.encoder flowIncomingPacketLengths:sum 0
attr interpolationmode none
attr recordingmode sum
attr source "packetLength(demuxFlow(merge(packetPushedIn, packetPulledIn)))"
attr title "flow specific incoming packet lengths, sum"
attr unit b
statistic TrainTopology.server.bridging.streamCoder.encoder flowIncomingPacketLengths:histogram
field count 0
field mean -nan
field stddev nan
field min nan
field max nan
field sum 0
field sqrsum 0
attr interpolationmode none
attr recordingmode histogram
attr source "packetLength(demuxFlow(merge(packetPushedIn, packetPulledIn)))"
attr title "flow specific incoming packet lengths"
attr unit b
bin	-inf	0
bin	0	0
bin	1	0
par TrainTopology.server.bridging.streamCoder typename "\"inet.protocolelement.redundancy.StreamCoderLayer\""
par TrainTopology.server.bridging.streamCoder interfaceTableModule "\"TrainTopology.server.interfaceTable\""
par TrainTopology.server.bridging typename "\"inet.linklayer.ethernet.common.BridgingLayer\""
par TrainTopology.server.bridging macTableModule "\"\""
par TrainTopology.server.bridging interfaceTableModule "\"TrainTopology.server.interfaceTable\""
par TrainTopology.server.bl typename "\"inet.common.MessageDispatcher\""
par TrainTopology.server.bl displayStringTextFormat "\"processed %p pk (%l)\""
par TrainTopology.server.bl forwardServiceRegistration true
par TrainTopology.server.bl forwardProtocolRegistration true
par TrainTopology.server.ethernet.fcsInserter.out.channel typename "\"ned.IdealChannel\""
par TrainTopology.server.ethernet.lowerLayerIn.channel typename "\"ned.IdealChannel\""
par TrainTopology.server.ethernet.upperLayerIn.channel typename "\"ned.IdealChannel\""
par TrainTopology.server.ethernet.macHeaderChecker.out.channel typename "\"ned.IdealChannel\""
par TrainTopology.server.ethernet.macHeaderInserter typename "\"inet.linklayer.ethernet.modular.EthernetMacHeaderInserter\""
par TrainTopology.server.ethernet.macHeaderInserter displayStringTextFormat "\"processed %p pk (%l)\""
par TrainTopology.server.ethernet.macHeaderInserter interfaceTableModule "\"TrainTopology.server.interfaceTable\""
scalar TrainTopology.server.ethernet.macHeaderInserter outgoingPackets:count 0
attr recordingmode count
attr source "merge(packetPushedOut, packetPulledOut)"
attr title "outgoing packets, count"
attr unit pk
scalar TrainTopology.server.ethernet.macHeaderInserter outgoingPacketLengths:sum 0
attr interpolationmode none
attr recordingmode sum
attr source "packetLength(merge(packetPushedOut, packetPulledOut))"
attr title "outgoing packet lengths, sum"
attr unit b
statistic TrainTopology.server.ethernet.macHeaderInserter outgoingPacketLengths:histogram
field count 0
field mean -nan
field stddev nan
field min nan
field max nan
field sum 0
field sqrsum 0
attr interpolationmode none
attr recordingmode histogram
attr source "packetLength(merge(packetPushedOut, packetPulledOut))"
attr title "outgoing packet lengths"
attr unit b
bin	-inf	0
bin	0	0
bin	1	0
scalar TrainTopology.server.ethernet.macHeaderInserter flowOutgoingPacketLengths:sum 0
attr interpolationmode none
attr recordingmode sum
attr source "packetLength(demuxFlow(merge(packetPushedOut, packetPulledOut)))"
attr title "flow specific outgoing packet lengths, sum"
attr unit b
statistic TrainTopology.server.ethernet.macHeaderInserter flowOutgoingPacketLengths:histogram
field count 0
field mean -nan
field stddev nan
field min nan
field max nan
field sum 0
field sqrsum 0
attr interpolationmode none
attr recordingmode histogram
attr source "packetLength(demuxFlow(merge(packetPushedOut, packetPulledOut)))"
attr title "flow specific outgoing packet lengths"
attr unit b
bin	-inf	0
bin	0	0
bin	1	0
scalar TrainTopology.server.ethernet.macHeaderInserter incomingPackets:count 0
attr recordingmode count
attr source "merge(packetPushedIn, packetPulledIn)"
attr title "incoming packets, count"
attr unit pk
scalar TrainTopology.server.ethernet.macHeaderInserter incomingPacketLengths:sum 0
attr interpolationmode none
attr recordingmode sum
attr source "packetLength(merge(packetPushedIn, packetPulledIn))"
attr title "incoming packet lengths, sum"
attr unit b
statistic TrainTopology.server.ethernet.macHeaderInserter incomingPacketLengths:histogram
field count 0
field mean -nan
field stddev nan
field min nan
field max nan
field sum 0
field sqrsum 0
attr interpolationmode none
attr recordingmode histogram
attr source "packetLength(merge(packetPushedIn, packetPulledIn))"
attr title "incoming packet lengths"
attr unit b
bin	-inf	0
bin	0	0
bin	1	0
scalar TrainTopology.server.ethernet.macHeaderInserter flowIncomingPacketLengths:sum 0
attr interpolationmode none
attr recordingmode sum
attr source "packetLength(demuxFlow(merge(packetPushedIn, packetPulledIn)))"
attr title "flow specific incoming packet lengths, sum"
attr unit b
statistic TrainTopology.server.ethernet.macHeaderInserter flowIncomingPacketLengths:histogram
field count 0
field mean -nan
field stddev nan
field min nan
field max nan
field sum 0
field sqrsum 0
attr interpolationmode none
attr recordingmode histogram
attr source "packetLength(demuxFlow(merge(packetPushedIn, packetPulledIn)))"
attr title "flow specific incoming packet lengths"
attr unit b
bin	-inf	0
bin	0	0
bin	1	0
par TrainTopology.server.ethernet.paddingInserter typename "\"inet.protocolelement.common.PaddingInserter\""
par TrainTopology.server.ethernet.paddingInserter displayStringTextFormat "\"processed %p pk (%l)\""
par TrainTopology.server.ethernet.paddingInserter minLength 480b
attr unit b
par TrainTopology.server.ethernet.paddingInserter roundingLength 8b
attr unit b
par TrainTopology.server.ethernet.paddingInserter insertionPosition "\"back\""
attr enum front,back
scalar TrainTopology.server.ethernet.paddingInserter outgoingPackets:count 0
attr recordingmode count
attr source "merge(packetPushedOut, packetPulledOut)"
attr title "outgoing packets, count"
attr unit pk
scalar TrainTopology.server.ethernet.paddingInserter outgoingPacketLengths:sum 0
attr interpolationmode none
attr recordingmode sum
attr source "packetLength(merge(packetPushedOut, packetPulledOut))"
attr title "outgoing packet lengths, sum"
attr unit b
statistic TrainTopology.server.ethernet.paddingInserter outgoingPacketLengths:histogram
field count 0
field mean -nan
field stddev nan
field min nan
field max nan
field sum 0
field sqrsum 0
attr interpolationmode none
attr recordingmode histogram
attr source "packetLength(merge(packetPushedOut, packetPulledOut))"
attr title "outgoing packet lengths"
attr unit b
bin	-inf	0
bin	0	0
bin	1	0
scalar TrainTopology.server.ethernet.paddingInserter flowOutgoingPacketLengths:sum 0
attr interpolationmode none
attr recordingmode sum
attr source "packetLength(demuxFlow(merge(packetPushedOut, packetPulledOut)))"
attr title "flow specific outgoing packet lengths, sum"
attr unit b
statistic TrainTopology.server.ethernet.paddingInserter flowOutgoingPacketLengths:histogram
field count 0
field mean -nan
field stddev nan
field min nan
field max nan
field sum 0
field sqrsum 0
attr interpolationmode none
attr recordingmode histogram
attr source "packetLength(demuxFlow(merge(packetPushedOut, packetPulledOut)))"
attr title "flow specific outgoing packet lengths"
attr unit b
bin	-inf	0
bin	0	0
bin	1	0
scalar TrainTopology.server.ethernet.paddingInserter incomingPackets:count 0
attr recordingmode count
attr source "merge(packetPushedIn, packetPulledIn)"
attr title "incoming packets, count"
attr unit pk
scalar TrainTopology.server.ethernet.paddingInserter incomingPacketLengths:sum 0
attr interpolationmode none
attr recordingmode sum
attr source "packetLength(merge(packetPushedIn, packetPulledIn))"
attr title "incoming packet lengths, sum"
attr unit b
statistic TrainTopology.server.ethernet.paddingInserter incomingPacketLengths:histogram
field count 0
field mean -nan
field stddev nan
field min nan
field max nan
field sum 0
field sqrsum 0
attr interpolationmode none
attr recordingmode histogram
attr source "packetLength(merge(packetPushedIn, packetPulledIn))"
attr title "incoming packet lengths"
attr unit b
bin	-inf	0
bin	0	0
bin	1	0
scalar TrainTopology.server.ethernet.paddingInserter flowIncomingPacketLengths:sum 0
attr interpolationmode none
attr recordingmode sum
attr source "packetLength(demuxFlow(merge(packetPushedIn, packetPulledIn)))"
attr title "flow specific incoming packet lengths, sum"
attr unit b
statistic TrainTopology.server.ethernet.paddingInserter flowIncomingPacketLengths:histogram
field count 0
field mean -nan
field stddev nan
field min nan
field max nan
field sum 0
field sqrsum 0
attr interpolationmode none
attr recordingmode histogram
attr source "packetLength(demuxFlow(merge(packetPushedIn, packetPulledIn)))"
attr title "flow specific incoming packet lengths"
attr unit b
bin	-inf	0
bin	0	0
bin	1	0
par TrainTopology.server.ethernet.fcsInserter typename "\"inet.linklayer.ethernet.modular.EthernetFcsInserter\""
par TrainTopology.server.ethernet.fcsInserter displayStringTextFormat "\"processed %p pk (%l)\""
par TrainTopology.server.ethernet.fcsInserter fcsMode "\"declared\""
attr enum disabled,declared,computed
scalar TrainTopology.server.ethernet.fcsInserter outgoingPackets:count 0
attr recordingmode count
attr source "merge(packetPushedOut, packetPulledOut)"
attr title "outgoing packets, count"
attr unit pk
scalar TrainTopology.server.ethernet.fcsInserter outgoingPacketLengths:sum 0
attr interpolationmode none
attr recordingmode sum
attr source "packetLength(merge(packetPushedOut, packetPulledOut))"
attr title "outgoing packet lengths, sum"
attr unit b
statistic TrainTopology.server.ethernet.fcsInserter outgoingPacketLengths:histogram
field count 0
field mean -nan
field stddev nan
field min nan
field max nan
field sum 0
field sqrsum 0
attr interpolationmode none
attr recordingmode histogram
attr source "packetLength(merge(packetPushedOut, packetPulledOut))"
attr title "outgoing packet lengths"
attr unit b
bin	-inf	0
bin	0	0
bin	1	0
scalar TrainTopology.server.ethernet.fcsInserter flowOutgoingPacketLengths:sum 0
attr interpolationmode none
attr recordingmode sum
attr source "packetLength(demuxFlow(merge(packetPushedOut, packetPulledOut)))"
attr title "flow specific outgoing packet lengths, sum"
attr unit b
statistic TrainTopology.server.ethernet.fcsInserter flowOutgoingPacketLengths:histogram
field count 0
field mean -nan
field stddev nan
field min nan
field max nan
field sum 0
field sqrsum 0
attr interpolationmode none
attr recordingmode histogram
attr source "packetLength(demuxFlow(merge(packetPushedOut, packetPulledOut)))"
attr title "flow specific outgoing packet lengths"
attr unit b
bin	-inf	0
bin	0	0
bin	1	0
scalar TrainTopology.server.ethernet.fcsInserter incomingPackets:count 0
attr recordingmode count
attr source "merge(packetPushedIn, packetPulledIn)"
attr title "incoming packets, count"
attr unit pk
scalar TrainTopology.server.ethernet.fcsInserter incomingPacketLengths:sum 0
attr interpolationmode none
attr recordingmode sum
attr source "packetLength(merge(packetPushedIn, packetPulledIn))"
attr title "incoming packet lengths, sum"
attr unit b
statistic TrainTopology.server.ethernet.fcsInserter incomingPacketLengths:histogram
field count 0
field mean -nan
field stddev nan
field min nan
field max nan
field sum 0
field sqrsum 0
attr interpolationmode none
attr recordingmode histogram
attr source "packetLength(merge(packetPushedIn, packetPulledIn))"
attr title "incoming packet lengths"
attr unit b
bin	-inf	0
bin	0	0
bin	1	0
scalar TrainTopology.server.ethernet.fcsInserter flowIncomingPacketLengths:sum 0
attr interpolationmode none
attr recordingmode sum
attr source "packetLength(demuxFlow(merge(packetPushedIn, packetPulledIn)))"
attr title "flow specific incoming packet lengths, sum"
attr unit b
statistic TrainTopology.server.ethernet.fcsInserter flowIncomingPacketLengths:histogram
field count 0
field mean -nan
field stddev nan
field min nan
field max nan
field sum 0
field sqrsum 0
attr interpolationmode none
attr recordingmode histogram
attr source "packetLength(demuxFlow(merge(packetPushedIn, packetPulledIn)))"
attr title "flow specific incoming packet lengths"
attr unit b
bin	-inf	0
bin	0	0
bin	1	0
par TrainTopology.server.ethernet.macHeaderChecker typename "\"inet.linklayer.ethernet.modular.EthernetMacHeaderChecker\""
par TrainTopology.server.ethernet.macHeaderChecker displayStringTextFormat "\"dropped %d/%p pk (%k/%l)\""
par TrainTopology.server.ethernet.macHeaderChecker backpressure false
par TrainTopology.server.ethernet.macHeaderChecker interfaceTableModule "\"TrainTopology.server.interfaceTable\""
par TrainTopology.server.ethernet.macHeaderChecker promiscuous false
scalar TrainTopology.server.ethernet.macHeaderChecker outgoingPackets:count 25
attr recordingmode count
attr source "merge(packetPushedOut, packetPulledOut)"
attr title "outgoing packets, count"
attr unit pk
scalar TrainTopology.server.ethernet.macHeaderChecker outgoingPacketLengths:sum 11200
attr interpolationmode none
attr recordingmode sum
attr source "packetLength(merge(packetPushedOut, packetPulledOut))"
attr title "outgoing packet lengths, sum"
attr unit b
statistic TrainTopology.server.ethernet.macHeaderChecker outgoingPacketLengths:histogram
field count 25
field mean 448
field stddev 40
field min 416
field max 496
field sum 11200
field sqrsum 5056000
attr interpolationmode none
attr recordingmode histogram
attr source "packetLength(merge(packetPushedOut, packetPulledOut))"
attr title "outgoing packet lengths"
attr unit b
bin	-inf	0
bin	396	0
bin	398	0
bin	400	0
bin	402	0
bin	404	0
bin	406	0
bin	408	0
bin	410	0
bin	412	0
bin	414	0
bin	416	15
bin	418	0
bin	420	0
bin	422	0
bin	424	0
bin	426	0
bin	428	0
bin	430	0
bin	432	0
bin	434	0
bin	436	0
bin	438	0
bin	440	0
bin	442	0
bin	444	0
bin	446	0
bin	448	0
bin	450	0
bin	452	0
bin	454	0
bin	456	0
bin	458	0
bin	460	0
bin	462	0
bin	464	0
bin	466	0
bin	468	0
bin	470	0
bin	472	0
bin	474	0
bin	476	0
bin	478	0
bin	480	0
bin	482	0
bin	484	0
bin	486	0
bin	488	0
bin	490	0
bin	492	0
bin	494	0
bin	496	10
bin	498	0
bin	500	0
bin	502	0
bin	504	0
bin	506	0
bin	508	0
bin	510	0
bin	512	0
bin	514	0
bin	516	0
scalar TrainTopology.server.ethernet.macHeaderChecker flowOutgoingPacketLengths:sum 0
attr interpolationmode none
attr recordingmode sum
attr source "packetLength(demuxFlow(merge(packetPushedOut, packetPulledOut)))"
attr title "flow specific outgoing packet lengths, sum"
attr unit b
statistic TrainTopology.server.ethernet.macHeaderChecker flowOutgoingPacketLengths:histogram
field count 0
field mean -nan
field stddev nan
field min nan
field max nan
field sum 0
field sqrsum 0
attr interpolationmode none
attr recordingmode histogram
attr source "packetLength(demuxFlow(merge(packetPushedOut, packetPulledOut)))"
attr title "flow specific outgoing packet lengths"
attr unit b
bin	-inf	0
bin	0	0
bin	1	0
scalar TrainTopology.server.ethernet.macHeaderChecker incomingPackets:count 25
attr recordingmode count
attr source "merge(packetPushedIn, packetPulledIn)"
attr title "incoming packets, count"
attr unit pk
scalar TrainTopology.server.ethernet.macHeaderChecker incomingPacketLengths:sum 14000
attr interpolationmode none
attr recordingmode sum
attr source "packetLength(merge(packetPushedIn, packetPulledIn))"
attr title "incoming packet lengths, sum"
attr unit b
statistic TrainTopology.server.ethernet.macHeaderChecker incomingPacketLengths:histogram
field count 25
field mean 560
field stddev 40
field min 528
field max 608
field sum 14000
field sqrsum 7878400
attr interpolationmode none
attr recordingmode histogram
attr source "packetLength(merge(packetPushedIn, packetPulledIn))"
attr title "incoming packet lengths"
attr unit b
bin	-inf	0
bin	508	0
bin	510	0
bin	512	0
bin	514	0
bin	516	0
bin	518	0
bin	520	0
bin	522	0
bin	524	0
bin	526	0
bin	528	15
bin	530	0
bin	532	0
bin	534	0
bin	536	0
bin	538	0
bin	540	0
bin	542	0
bin	544	0
bin	546	0
bin	548	0
bin	550	0
bin	552	0
bin	554	0
bin	556	0
bin	558	0
bin	560	0
bin	562	0
bin	564	0
bin	566	0
bin	568	0
bin	570	0
bin	572	0
bin	574	0
bin	576	0
bin	578	0
bin	580	0
bin	582	0
bin	584	0
bin	586	0
bin	588	0
bin	590	0
bin	592	0
bin	594	0
bin	596	0
bin	598	0
bin	600	0
bin	602	0
bin	604	0
bin	606	0
bin	608	10
bin	610	0
bin	612	0
bin	614	0
bin	616	0
bin	618	0
bin	620	0
bin	622	0
bin	624	0
bin	626	0
bin	628	0
scalar TrainTopology.server.ethernet.macHeaderChecker flowIncomingPacketLengths:sum 0
attr interpolationmode none
attr recordingmode sum
attr source "packetLength(demuxFlow(merge(packetPushedIn, packetPulledIn)))"
attr title "flow specific incoming packet lengths, sum"
attr unit b
statistic TrainTopology.server.ethernet.macHeaderChecker flowIncomingPacketLengths:histogram
field count 0
field mean -nan
field stddev nan
field min nan
field max nan
field sum 0
field sqrsum 0
attr interpolationmode none
attr recordingmode histogram
attr source "packetLength(demuxFlow(merge(packetPushedIn, packetPulledIn)))"
attr title "flow specific incoming packet lengths"
attr unit b
bin	-inf	0
bin	0	0
bin	1	0
scalar TrainTopology.server.ethernet.macHeaderChecker droppedPackets:count 0
attr recordingmode count
attr source packetDropped
attr title "dropped packets, count"
attr unit pk
scalar TrainTopology.server.ethernet.macHeaderChecker droppedPacketLengths:sum 0
attr interpolationmode none
attr recordingmode sum
attr source packetLength(packetDropped)
attr title "dropped packet lengths, sum"
attr unit b
statistic TrainTopology.server.ethernet.macHeaderChecker droppedPacketLengths:histogram
field count 0
field mean -nan
field stddev nan
field min nan
field max nan
field sum 0
field sqrsum 0
attr interpolationmode none
attr recordingmode histogram
attr source packetLength(packetDropped)
attr title "dropped packet lengths"
attr unit b
bin	-inf	0
bin	0	0
bin	1	0
scalar TrainTopology.server.ethernet.macHeaderChecker flowDroppedPacketLengths:sum 0
attr interpolationmode none
attr recordingmode sum
attr source packetLength(demuxFlow(packetDropped))
attr title "flow specific dropped packet lengths, sum"
attr unit b
statistic TrainTopology.server.ethernet.macHeaderChecker flowDroppedPacketLengths:histogram
field count 0
field mean -nan
field stddev nan
field min nan
field max nan
field sum 0
field sqrsum 0
attr interpolationmode none
attr recordingmode histogram
attr source packetLength(demuxFlow(packetDropped))
attr title "flow specific dropped packet lengths"
attr unit b
bin	-inf	0
bin	0	0
bin	1	0
par TrainTopology.server.ethernet.fcsChecker typename "\"inet.linklayer.ethernet.modular.EthernetFcsChecker\""
par TrainTopology.server.ethernet.fcsChecker displayStringTextFormat "\"dropped %d/%p pk (%k/%l)\""
par TrainTopology.server.ethernet.fcsChecker backpressure false
par TrainTopology.server.ethernet.fcsChecker popFcs true
scalar TrainTopology.server.ethernet.fcsChecker outgoingPackets:count 25
attr recordingmode count
attr source "merge(packetPushedOut, packetPulledOut)"
attr title "outgoing packets, count"
attr unit pk
scalar TrainTopology.server.ethernet.fcsChecker outgoingPacketLengths:sum 14000
attr interpolationmode none
attr recordingmode sum
attr source "packetLength(merge(packetPushedOut, packetPulledOut))"
attr title "outgoing packet lengths, sum"
attr unit b
statistic TrainTopology.server.ethernet.fcsChecker outgoingPacketLengths:histogram
field count 25
field mean 560
field stddev 40
field min 528
field max 608
field sum 14000
field sqrsum 7878400
attr interpolationmode none
attr recordingmode histogram
attr source "packetLength(merge(packetPushedOut, packetPulledOut))"
attr title "outgoing packet lengths"
attr unit b
bin	-inf	0
bin	508	0
bin	510	0
bin	512	0
bin	514	0
bin	516	0
bin	518	0
bin	520	0
bin	522	0
bin	524	0
bin	526	0
bin	528	15
bin	530	0
bin	532	0
bin	534	0
bin	536	0
bin	538	0
bin	540	0
bin	542	0
bin	544	0
bin	546	0
bin	548	0
bin	550	0
bin	552	0
bin	554	0
bin	556	0
bin	558	0
bin	560	0
bin	562	0
bin	564	0
bin	566	0
bin	568	0
bin	570	0
bin	572	0
bin	574	0
bin	576	0
bin	578	0
bin	580	0
bin	582	0
bin	584	0
bin	586	0
bin	588	0
bin	590	0
bin	592	0
bin	594	0
bin	596	0
bin	598	0
bin	600	0
bin	602	0
bin	604	0
bin	606	0
bin	608	10
bin	610	0
bin	612	0
bin	614	0
bin	616	0
bin	618	0
bin	620	0
bin	622	0
bin	624	0
bin	626	0
bin	628	0
scalar TrainTopology.server.ethernet.fcsChecker flowOutgoingPacketLengths:sum 0
attr interpolationmode none
attr recordingmode sum
attr source "packetLength(demuxFlow(merge(packetPushedOut, packetPulledOut)))"
attr title "flow specific outgoing packet lengths, sum"
attr unit b
statistic TrainTopology.server.ethernet.fcsChecker flowOutgoingPacketLengths:histogram
field count 0
field mean -nan
field stddev nan
field min nan
field max nan
field sum 0
field sqrsum 0
attr interpolationmode none
attr recordingmode histogram
attr source "packetLength(demuxFlow(merge(packetPushedOut, packetPulledOut)))"
attr title "flow specific outgoing packet lengths"
attr unit b
bin	-inf	0
bin	0	0
bin	1	0
scalar TrainTopology.server.ethernet.fcsChecker incomingPackets:count 25
attr recordingmode count
attr source "merge(packetPushedIn, packetPulledIn)"
attr title "incoming packets, count"
attr unit pk
scalar TrainTopology.server.ethernet.fcsChecker incomingPacketLengths:sum 14800
attr interpolationmode none
attr recordingmode sum
attr source "packetLength(merge(packetPushedIn, packetPulledIn))"
attr title "incoming packet lengths, sum"
attr unit b
statistic TrainTopology.server.ethernet.fcsChecker incomingPacketLengths:histogram
field count 25
field mean 592
field stddev 40
field min 560
field max 640
field sum 14800
field sqrsum 8800000
attr interpolationmode none
attr recordingmode histogram
attr source "packetLength(merge(packetPushedIn, packetPulledIn))"
attr title "incoming packet lengths"
attr unit b
bin	-inf	0
bin	540	0
bin	542	0
bin	544	0
bin	546	0
bin	548	0
bin	550	0
bin	552	0
bin	554	0
bin	556	0
bin	558	0
bin	560	15
bin	562	0
bin	564	0
bin	566	0
bin	568	0
bin	570	0
bin	572	0
bin	574	0
bin	576	0
bin	578	0
bin	580	0
bin	582	0
bin	584	0
bin	586	0
bin	588	0
bin	590	0
bin	592	0
bin	594	0
bin	596	0
bin	598	0
bin	600	0
bin	602	0
bin	604	0
bin	606	0
bin	608	0
bin	610	0
bin	612	0
bin	614	0
bin	616	0
bin	618	0
bin	620	0
bin	622	0
bin	624	0
bin	626	0
bin	628	0
bin	630	0
bin	632	0
bin	634	0
bin	636	0
bin	638	0
bin	640	10
bin	642	0
bin	644	0
bin	646	0
bin	648	0
bin	650	0
bin	652	0
bin	654	0
bin	656	0
bin	658	0
bin	660	0
scalar TrainTopology.server.ethernet.fcsChecker flowIncomingPacketLengths:sum 0
attr interpolationmode none
attr recordingmode sum
attr source "packetLength(demuxFlow(merge(packetPushedIn, packetPulledIn)))"
attr title "flow specific incoming packet lengths, sum"
attr unit b
statistic TrainTopology.server.ethernet.fcsChecker flowIncomingPacketLengths:histogram
field count 0
field mean -nan
field stddev nan
field min nan
field max nan
field sum 0
field sqrsum 0
attr interpolationmode none
attr recordingmode histogram
attr source "packetLength(demuxFlow(merge(packetPushedIn, packetPulledIn)))"
attr title "flow specific incoming packet lengths"
attr unit b
bin	-inf	0
bin	0	0
bin	1	0
scalar TrainTopology.server.ethernet.fcsChecker droppedPackets:count 0
attr recordingmode count
attr source packetDropped
attr title "dropped packets, count"
attr unit pk
scalar TrainTopology.server.ethernet.fcsChecker droppedPacketLengths:sum 0
attr interpolationmode none
attr recordingmode sum
attr source packetLength(packetDropped)
attr title "dropped packet lengths, sum"
attr unit b
statistic TrainTopology.server.ethernet.fcsChecker droppedPacketLengths:histogram
field count 0
field mean -nan
field stddev nan
field min nan
field max nan
field sum 0
field sqrsum 0
attr interpolationmode none
attr recordingmode histogram
attr source packetLength(packetDropped)
attr title "dropped packet lengths"
attr unit b
bin	-inf	0
bin	0	0
bin	1	0
scalar TrainTopology.server.ethernet.fcsChecker flowDroppedPacketLengths:sum 0
attr interpolationmode none
attr recordingmode sum
attr source packetLength(demuxFlow(packetDropped))
attr title "flow specific dropped packet lengths, sum"
attr unit b
statistic TrainTopology.server.ethernet.fcsChecker flowDroppedPacketLengths:histogram
field count 0
field mean -nan
field stddev nan
field min nan
field max nan
field sum 0
field sqrsum 0
attr interpolationmode none
attr recordingmode histogram
attr source packetLength(demuxFlow(packetDropped))
attr title "flow specific dropped packet lengths"
attr unit b
bin	-inf	0
bin	0	0
bin	1	0
par TrainTopology.server.ethernet typename "\"inet.linklayer.ethernet.modular.EthernetLayer\""
par TrainTopology.server.ethernet interfaceTableModule "\"TrainTopology.server.interfaceTable\""
par TrainTopology.server.ethernet hasSocketSupport false
par TrainTopology.server.ieee8021q.qTagHeaderInserter.out.channel typename "\"ned.IdealChannel\""
par TrainTopology.server.ieee8021q.lowerLayerIn.channel typename "\"ned.IdealChannel\""
par TrainTopology.server.ieee8021q.upperLayerIn.channel typename "\"ned.IdealChannel\""
par TrainTopology.server.ieee8021q.qTagHeaderChecker.out.channel typename "\"ned.IdealChannel\""
par TrainTopology.server.ieee8021q.qTagHeaderInserter typename "\"inet.linklayer.ieee8021q.Ieee8021qTagEpdHeaderInserter\""
par TrainTopology.server.ieee8021q.qTagHeaderInserter displayStringTextFormat "\"processed %p pk (%l)\""
par TrainTopology.server.ieee8021q.qTagHeaderInserter vlanTagType "\"c\""
attr enum c,s
par TrainTopology.server.ieee8021q.qTagHeaderInserter nextProtocol "\"ethernetmac\""
par TrainTopology.server.ieee8021q.qTagHeaderInserter defaultVlanId -1
par TrainTopology.server.ieee8021q.qTagHeaderInserter defaultPcp -1
par TrainTopology.server.ieee8021q.qTagHeaderInserter defaultUserPriority -1
par TrainTopology.server.ieee8021q.qTagHeaderInserter defaultDropEligible -1
scalar TrainTopology.server.ieee8021q.qTagHeaderInserter outgoingPackets:count 0
attr recordingmode count
attr source "merge(packetPushedOut, packetPulledOut)"
attr title "outgoing packets, count"
attr unit pk
scalar TrainTopology.server.ieee8021q.qTagHeaderInserter outgoingPacketLengths:sum 0
attr interpolationmode none
attr recordingmode sum
attr source "packetLength(merge(packetPushedOut, packetPulledOut))"
attr title "outgoing packet lengths, sum"
attr unit b
statistic TrainTopology.server.ieee8021q.qTagHeaderInserter outgoingPacketLengths:histogram
field count 0
field mean -nan
field stddev nan
field min nan
field max nan
field sum 0
field sqrsum 0
attr interpolationmode none
attr recordingmode histogram
attr source "packetLength(merge(packetPushedOut, packetPulledOut))"
attr title "outgoing packet lengths"
attr unit b
bin	-inf	0
bin	0	0
bin	1	0
scalar TrainTopology.server.ieee8021q.qTagHeaderInserter flowOutgoingPacketLengths:sum 0
attr interpolationmode none
attr recordingmode sum
attr source "packetLength(demuxFlow(merge(packetPushedOut, packetPulledOut)))"
attr title "flow specific outgoing packet lengths, sum"
attr unit b
statistic TrainTopology.server.ieee8021q.qTagHeaderInserter flowOutgoingPacketLengths:histogram
field count 0
field mean -nan
field stddev nan
field min nan
field max nan
field sum 0
field sqrsum 0
attr interpolationmode none
attr recordingmode histogram
attr source "packetLength(demuxFlow(merge(packetPushedOut, packetPulledOut)))"
attr title "flow specific outgoing packet lengths"
attr unit b
bin	-inf	0
bin	0	0
bin	1	0
scalar TrainTopology.server.ieee8021q.qTagHeaderInserter incomingPackets:count 0
attr recordingmode count
attr source "merge(packetPushedIn, packetPulledIn)"
attr title "incoming packets, count"
attr unit pk
scalar TrainTopology.server.ieee8021q.qTagHeaderInserter incomingPacketLengths:sum 0
attr interpolationmode none
attr recordingmode sum
attr source "packetLength(merge(packetPushedIn, packetPulledIn))"
attr title "incoming packet lengths, sum"
attr unit b
statistic TrainTopology.server.ieee8021q.qTagHeaderInserter incomingPacketLengths:histogram
field count 0
field mean -nan
field stddev nan
field min nan
field max nan
field sum 0
field sqrsum 0
attr interpolationmode none
attr recordingmode histogram
attr source "packetLength(merge(packetPushedIn, packetPulledIn))"
attr title "incoming packet lengths"
attr unit b
bin	-inf	0
bin	0	0
bin	1	0
scalar TrainTopology.server.ieee8021q.qTagHeaderInserter flowIncomingPacketLengths:sum 0
attr interpolationmode none
attr recordingmode sum
attr source "packetLength(demuxFlow(merge(packetPushedIn, packetPulledIn)))"
attr title "flow specific incoming packet lengths, sum"
attr unit b
statistic TrainTopology.server.ieee8021q.qTagHeaderInserter flowIncomingPacketLengths:histogram
field count 0
field mean -nan
field stddev nan
field min nan
field max nan
field sum 0
field sqrsum 0
attr interpolationmode none
attr recordingmode histogram
attr source "packetLength(demuxFlow(merge(packetPushedIn, packetPulledIn)))"
attr title "flow specific incoming packet lengths"
attr unit b
bin	-inf	0
bin	0	0
bin	1	0
par TrainTopology.server.ieee8021q.qTagHeaderChecker typename "\"inet.linklayer.ieee8021q.Ieee8021qTagEpdHeaderChecker\""
par TrainTopology.server.ieee8021q.qTagHeaderChecker displayStringTextFormat "\"dropped %d/%p pk (%k/%l)\""
par TrainTopology.server.ieee8021q.qTagHeaderChecker backpressure false
par TrainTopology.server.ieee8021q.qTagHeaderChecker vlanTagType "\"c\""
attr enum c,s
par TrainTopology.server.ieee8021q.qTagHeaderChecker vlanIdFilter []
attr mutable ""
scalar TrainTopology.server.ieee8021q.qTagHeaderChecker outgoingPackets:count 25
attr recordingmode count
attr source "merge(packetPushedOut, packetPulledOut)"
attr title "outgoing packets, count"
attr unit pk
scalar TrainTopology.server.ieee8021q.qTagHeaderChecker outgoingPacketLengths:sum 10400
attr interpolationmode none
attr recordingmode sum
attr source "packetLength(merge(packetPushedOut, packetPulledOut))"
attr title "outgoing packet lengths, sum"
attr unit b
statistic TrainTopology.server.ieee8021q.qTagHeaderChecker outgoingPacketLengths:histogram
field count 25
field mean 416
field stddev 40
field min 384
field max 464
field sum 10400
field sqrsum 4364800
attr interpolationmode none
attr recordingmode histogram
attr source "packetLength(merge(packetPushedOut, packetPulledOut))"
attr title "outgoing packet lengths"
attr unit b
bin	-inf	0
bin	364	0
bin	366	0
bin	368	0
bin	370	0
bin	372	0
bin	374	0
bin	376	0
bin	378	0
bin	380	0
bin	382	0
bin	384	15
bin	386	0
bin	388	0
bin	390	0
bin	392	0
bin	394	0
bin	396	0
bin	398	0
bin	400	0
bin	402	0
bin	404	0
bin	406	0
bin	408	0
bin	410	0
bin	412	0
bin	414	0
bin	416	0
bin	418	0
bin	420	0
bin	422	0
bin	424	0
bin	426	0
bin	428	0
bin	430	0
bin	432	0
bin	434	0
bin	436	0
bin	438	0
bin	440	0
bin	442	0
bin	444	0
bin	446	0
bin	448	0
bin	450	0
bin	452	0
bin	454	0
bin	456	0
bin	458	0
bin	460	0
bin	462	0
bin	464	10
bin	466	0
bin	468	0
bin	470	0
bin	472	0
bin	474	0
bin	476	0
bin	478	0
bin	480	0
bin	482	0
bin	484	0
scalar TrainTopology.server.ieee8021q.qTagHeaderChecker flowOutgoingPacketLengths:sum 0
attr interpolationmode none
attr recordingmode sum
attr source "packetLength(demuxFlow(merge(packetPushedOut, packetPulledOut)))"
attr title "flow specific outgoing packet lengths, sum"
attr unit b
statistic TrainTopology.server.ieee8021q.qTagHeaderChecker flowOutgoingPacketLengths:histogram
field count 0
field mean -nan
field stddev nan
field min nan
field max nan
field sum 0
field sqrsum 0
attr interpolationmode none
attr recordingmode histogram
attr source "packetLength(demuxFlow(merge(packetPushedOut, packetPulledOut)))"
attr title "flow specific outgoing packet lengths"
attr unit b
bin	-inf	0
bin	0	0
bin	1	0
scalar TrainTopology.server.ieee8021q.qTagHeaderChecker incomingPackets:count 25
attr recordingmode count
attr source "merge(packetPushedIn, packetPulledIn)"
attr title "incoming packets, count"
attr unit pk
scalar TrainTopology.server.ieee8021q.qTagHeaderChecker incomingPacketLengths:sum 11200
attr interpolationmode none
attr recordingmode sum
attr source "packetLength(merge(packetPushedIn, packetPulledIn))"
attr title "incoming packet lengths, sum"
attr unit b
statistic TrainTopology.server.ieee8021q.qTagHeaderChecker incomingPacketLengths:histogram
field count 25
field mean 448
field stddev 40
field min 416
field max 496
field sum 11200
field sqrsum 5056000
attr interpolationmode none
attr recordingmode histogram
attr source "packetLength(merge(packetPushedIn, packetPulledIn))"
attr title "incoming packet lengths"
attr unit b
bin	-inf	0
bin	396	0
bin	398	0
bin	400	0
bin	402	0
bin	404	0
bin	406	0
bin	408	0
bin	410	0
bin	412	0
bin	414	0
bin	416	15
bin	418	0
bin	420	0
bin	422	0
bin	424	0
bin	426	0
bin	428	0
bin	430	0
bin	432	0
bin	434	0
bin	436	0
bin	438	0
bin	440	0
bin	442	0
bin	444	0
bin	446	0
bin	448	0
bin	450	0
bin	452	0
bin	454	0
bin	456	0
bin	458	0
bin	460	0
bin	462	0
bin	464	0
bin	466	0
bin	468	0
bin	470	0
bin	472	0
bin	474	0
bin	476	0
bin	478	0
bin	480	0
bin	482	0
bin	484	0
bin	486	0
bin	488	0
bin	490	0
bin	492	0
bin	494	0
bin	496	10
bin	498	0
bin	500	0
bin	502	0
bin	504	0
bin	506	0
bin	508	0
bin	510	0
bin	512	0
bin	514	0
bin	516	0
scalar TrainTopology.server.ieee8021q.qTagHeaderChecker flowIncomingPacketLengths:sum 0
attr interpolationmode none
attr recordingmode sum
attr source "packetLength(demuxFlow(merge(packetPushedIn, packetPulledIn)))"
attr title "flow specific incoming packet lengths, sum"
attr unit b
statistic TrainTopology.server.ieee8021q.qTagHeaderChecker flowIncomingPacketLengths:histogram
field count 0
field mean -nan
field stddev nan
field min nan
field max nan
field sum 0
field sqrsum 0
attr interpolationmode none
attr recordingmode histogram
attr source "packetLength(demuxFlow(merge(packetPushedIn, packetPulledIn)))"
attr title "flow specific incoming packet lengths"
attr unit b
bin	-inf	0
bin	0	0
bin	1	0
scalar TrainTopology.server.ieee8021q.qTagHeaderChecker droppedPackets:count 0
attr recordingmode count
attr source packetDropped
attr title "dropped packets, count"
attr unit pk
scalar TrainTopology.server.ieee8021q.qTagHeaderChecker droppedPacketLengths:sum 0
attr interpolationmode none
attr recordingmode sum
attr source packetLength(packetDropped)
attr title "dropped packet lengths, sum"
attr unit b
statistic TrainTopology.server.ieee8021q.qTagHeaderChecker droppedPacketLengths:histogram
field count 0
field mean -nan
field stddev nan
field min nan
field max nan
field sum 0
field sqrsum 0
attr interpolationmode none
attr recordingmode histogram
attr source packetLength(packetDropped)
attr title "dropped packet lengths"
attr unit b
bin	-inf	0
bin	0	0
bin	1	0
scalar TrainTopology.server.ieee8021q.qTagHeaderChecker flowDroppedPacketLengths:sum 0
attr interpolationmode none
attr recordingmode sum
attr source packetLength(demuxFlow(packetDropped))
attr title "flow specific dropped packet lengths, sum"
attr unit b
statistic TrainTopology.server.ieee8021q.qTagHeaderChecker flowDroppedPacketLengths:histogram
field count 0
field mean -nan
field stddev nan
field min nan
field max nan
field sum 0
field sqrsum 0
attr interpolationmode none
attr recordingmode histogram
attr source packetLength(demuxFlow(packetDropped))
attr title "flow specific dropped packet lengths"
attr unit b
bin	-inf	0
bin	0	0
bin	1	0
par TrainTopology.server.ieee8021q typename "\"inet.linklayer.ieee8021q.Ieee8021qProtocol\""
par TrainTopology.server.ieee8021q vlanTagType "\"c\""
par TrainTopology.server.ieee8021q hasSocketSupport false
par TrainTopology.server.li typename "\"inet.common.MessageDispatcher\""
par TrainTopology.server.li displayStringTextFormat "\"processed %p pk (%l)\""
par TrainTopology.server.li forwardServiceRegistration true
par TrainTopology.server.li forwardProtocolRegistration true
par TrainTopology.server.lo[0].upperLayerIn.channel typename "\"ned.IdealChannel\""
par TrainTopology.server.lo[0].lo.upperLayerOut.channel typename "\"ned.IdealChannel\""
par TrainTopology.server.lo[0].lo typename "\"inet.linklayer.loopback.Loopback\""
par TrainTopology.server.lo[0].lo interfaceTableModule "\"TrainTopology.server.interfaceTable\""
par TrainTopology.server.lo[0].lo mtu 4470B
attr unit B
scalar TrainTopology.server.lo[0].lo rcvdPkFromHl:count 0
attr interpolationmode none
attr recordingmode count
attr source packetReceivedFromUpper
attr title "packets received from higher layer, count"
scalar TrainTopology.server.lo[0].lo rcvdPkFromHl:sum(packetBytes) 0
attr interpolationmode none
attr recordingmode sum(packetBytes)
attr source packetReceivedFromUpper
attr title "packets received from higher layer, sum(packetBytes)"
scalar TrainTopology.server.lo[0].lo passedUpPk:count 0
attr interpolationmode none
attr recordingmode count
attr source packetSentToUpper
attr title "packets passed to higher layer, count"
scalar TrainTopology.server.lo[0].lo passedUpPk:sum(packetBytes) 0
attr interpolationmode none
attr recordingmode sum(packetBytes)
attr source packetSentToUpper
attr title "packets passed to higher layer, sum(packetBytes)"
par TrainTopology.server.lo[0] typename "\"inet.linklayer.loopback.LoopbackInterface\""
par TrainTopology.server.lo[0] displayStringTextFormat "\"%a (%i)\\n%m\""
par TrainTopology.server.lo[0] recordPcap false
par TrainTopology.server.lo[0] numPcapRecorders 0
par TrainTopology.server.lo[0] interfaceTableModule "\"TrainTopology.server.interfaceTable\""
[...]
attr unit dB
par TrainTopology.BCUUe[3].cellularNic.nrDlFbGen typename "\"simu5g.stack.phy.feedback.LteDlFeedbackGenerator\""
par TrainTopology.BCUUe[3].cellularNic.nrDlFbGen feedbackType "\"ALLBANDS\""
par TrainTopology.BCUUe[3].cellularNic.nrDlFbGen rbAllocationType "\"localized\""
par TrainTopology.BCUUe[3].cellularNic.nrDlFbGen fbPeriod 40
par TrainTopology.BCUUe[3].cellularNic.nrDlFbGen fbDelay 1
par TrainTopology.BCUUe[3].cellularNic.nrDlFbGen usePeriodic true
par TrainTopology.BCUUe[3].cellularNic.nrDlFbGen initialTxMode "\"SINGLE_ANTENNA_PORT0\""
par TrainTopology.BCUUe[3].cellularNic.nrDlFbGen feedbackGeneratorType "\"IDEAL\""
par TrainTopology.BCUUe[3].cellularNic typename "\"simu5g.stack.NRNicUe\""
par TrainTopology.BCUUe[3].cellularNic displayStringTextFormat "\"%a (%i)\\n%m\""
par TrainTopology.BCUUe[3].cellularNic recordPcap false
par TrainTopology.BCUUe[3].cellularNic numPcapRecorders 0
par TrainTopology.BCUUe[3].cellularNic isWireless true
par TrainTopology.BCUUe[3].cellularNic interfaceTableModule "\"TrainTopology.BCUUe[3].interfaceTable\""
par TrainTopology.BCUUe[3].cellularNic routingTableModule "\"^.ipv4.routingTable\""
par TrainTopology.BCUUe[3].cellularNic LtePdcpRrcType "\"NRPdcpRrcUe\""
par TrainTopology.BCUUe[3].cellularNic LteMacType "\"LteMacUeD2D\""
par TrainTopology.BCUUe[3].cellularNic PacketFlowManagerType "\"PacketFlowManagerUe\""
par TrainTopology.BCUUe[3].cellularNic hasRNISupport false
par TrainTopology.BCUUe[3].cellularNic LtePhyType "\"NRPhyUe\""
par TrainTopology.BCUUe[3].cellularNic nodeType "\"UE\""
par TrainTopology.BCUUe[3].cellularNic processingDelayIn 0s
attr unit s
par TrainTopology.BCUUe[3].cellularNic processingDelayOut 0s
attr unit s
par TrainTopology.BCUUe[3].cellularNic LteChannelModelType "\"LteRealisticChannelModel\""
par TrainTopology.BCUUe[3].cellularNic d2dCapable true
par TrainTopology.BCUUe[3].cellularNic dualConnectivityEnabled false
par TrainTopology.BCUUe[3].cellularNic numCarriers 1
par TrainTopology.BCUUe[3].cellularNic address "\"0A-AA-00-00-00-1C\""
attr mutable ""
par TrainTopology.BCUUe[3].cellularNic d2dInitialMode false
par TrainTopology.BCUUe[3].cellularNic NRMacType "\"NRMacUe\""
par TrainTopology.BCUUe[3].cellularNic NRPhyType "\"NRPhyUe\""
par TrainTopology.BCUUe[3].cellularNic NRChannelModelType "\"NRChannelModel_3GPP38_901\""
par TrainTopology.BCUUe[3].cellularNic NRPacketFlowManagerType "\"NRPacketFlowManagerUe\""
par TrainTopology.BCUUe[3].cellularNic numNRCarriers 1
scalar TrainTopology.BCUUe[3].cellularNic packetDropInterfaceDown:count 0
attr interpolationmode none
attr recordingmode count
attr source packetDropReasonIsInterfaceDown(packetDropped)
attr title "packet drops: interface down, count"
scalar TrainTopology.BCUUe[3].cellularNic packetDropInterfaceDown:sum(packetBytes) 0
attr interpolationmode none
attr recordingmode sum(packetBytes)
attr source packetDropReasonIsInterfaceDown(packetDropped)
attr title "packet drops: interface down, sum(packetBytes)"
scalar TrainTopology.BCUUe[3].cellularNic packetDropNoCarrier:count 0
attr interpolationmode none
attr recordingmode count
attr source packetDropReasonIsNoCarrier(packetDropped)
attr title "packet drops: no carrier, count"
scalar TrainTopology.BCUUe[3].cellularNic packetDropNoCarrier:sum(packetBytes) 0
attr interpolationmode none
attr recordingmode sum(packetBytes)
attr source packetDropReasonIsNoCarrier(packetDropped)
attr title "packet drops: no carrier, sum(packetBytes)"
par TrainTopology.BCUUe[3].encap typename "\"inet.linklayer.ethernet.basic.EthernetEncapsulation\""
par TrainTopology.BCUUe[3].encap registerProtocol true
par TrainTopology.BCUUe[3].encap interfaceTableModule "\"TrainTopology.BCUUe[3].interfaceTable\""
par TrainTopology.BCUUe[3].encap fcsMode "\"declared\""
attr enum declared,computed
par TrainTopology.BCUUe[3].encap stopOperationExtraTime -1s
attr unit s
par TrainTopology.BCUUe[3].encap stopOperationTimeout 2s
attr unit s
scalar TrainTopology.BCUUe[3].encap pauseSent:count 0
attr recordingmode count
attr title "pause sent, count"
scalar TrainTopology.BCUUe[3].encap pauseSent:sum 0
attr recordingmode sum
attr title "pause sent, sum"
scalar TrainTopology.BCUUe[3].encap decapPk:count 0
attr interpolationmode none
attr recordingmode count
attr source decapPk
attr title "packets decapsulated, count"
scalar TrainTopology.BCUUe[3].encap decapPk:sum(packetBytes) 0
attr interpolationmode none
attr recordingmode sum(packetBytes)
attr source decapPk
attr title "packets decapsulated, sum(packetBytes)"
scalar TrainTopology.BCUUe[3].encap encapPk:count 0
attr interpolationmode none
attr recordingmode count
attr source encapPk
attr title "packets encapsulated, count"
scalar TrainTopology.BCUUe[3].encap encapPk:sum(packetBytes) 0
attr interpolationmode none
attr recordingmode sum(packetBytes)
attr source encapPk
attr title "packets encapsulated, sum(packetBytes)"
par TrainTopology.BCUUe[3].ipv4.transportIn.channel typename "\"ned.IdealChannel\""
par TrainTopology.BCUUe[3].ipv4.up.out[0].channel typename "\"ned.IdealChannel\""
par TrainTopology.BCUUe[3].ipv4.lp.out[2].channel typename "\"ned.IdealChannel\""
par TrainTopology.BCUUe[3].ipv4.ifIn.channel typename "\"ned.IdealChannel\""
par TrainTopology.BCUUe[3].ipv4.configurator typename "\"inet.networklayer.configurator.ipv4.Ipv4NodeConfigurator\""
par TrainTopology.BCUUe[3].ipv4.configurator interfaceTableModule "\"TrainTopology.BCUUe[3].interfaceTable\""
par TrainTopology.BCUUe[3].ipv4.configurator routingTableModule "\"TrainTopology.BCUUe[3].ipv4.routingTable\""
par TrainTopology.BCUUe[3].ipv4.configurator networkConfiguratorModule "\"configurator\""
par TrainTopology.BCUUe[3].ipv4.configurator configureRoutingTable true
par TrainTopology.BCUUe[3].ipv4.routingTable typename "\"inet.networklayer.ipv4.Ipv4RoutingTable\""
par TrainTopology.BCUUe[3].ipv4.routingTable interfaceTableModule "\"TrainTopology.BCUUe[3].interfaceTable\""
par TrainTopology.BCUUe[3].ipv4.routingTable routerId "\"auto\""
par TrainTopology.BCUUe[3].ipv4.routingTable netmaskRoutes "\"*\""
par TrainTopology.BCUUe[3].ipv4.routingTable forwarding true
par TrainTopology.BCUUe[3].ipv4.routingTable multicastForwarding false
par TrainTopology.BCUUe[3].ipv4.routingTable useAdminDist false
par TrainTopology.BCUUe[3].ipv4.routingTable routingFile "\"\""
par TrainTopology.BCUUe[3].ipv4.natTable typename "\"inet.networklayer.ipv4.Ipv4NatTable\""
par TrainTopology.BCUUe[3].ipv4.natTable networkProtocolModule "\"^.ip\""
par TrainTopology.BCUUe[3].ipv4.natTable config "<config/> at content:1"
par TrainTopology.BCUUe[3].ipv4.up typename "\"inet.common.MessageDispatcher\""
par TrainTopology.BCUUe[3].ipv4.up displayStringTextFormat "\"processed %p pk (%l)\""
par TrainTopology.BCUUe[3].ipv4.up forwardServiceRegistration true
par TrainTopology.BCUUe[3].ipv4.up forwardProtocolRegistration true
par TrainTopology.BCUUe[3].ipv4.igmp typename "\"inet.networklayer.ipv4.Igmpv2\""
par TrainTopology.BCUUe[3].ipv4.igmp interfaceTableModule "\"TrainTopology.BCUUe[3].interfaceTable\""
par TrainTopology.BCUUe[3].ipv4.igmp routingTableModule "\"TrainTopology.BCUUe[3].ipv4.routingTable\""
par TrainTopology.BCUUe[3].ipv4.igmp crcMode "\"declared\""
attr enum declared,computed
par TrainTopology.BCUUe[3].ipv4.igmp enabled true
par TrainTopology.BCUUe[3].ipv4.igmp robustnessVariable 2
par TrainTopology.BCUUe[3].ipv4.igmp queryInterval 125s
attr unit s
par TrainTopology.BCUUe[3].ipv4.igmp queryResponseInterval 10s
attr unit s
par TrainTopology.BCUUe[3].ipv4.igmp groupMembershipInterval 260s
attr unit s
par TrainTopology.BCUUe[3].ipv4.igmp otherQuerierPresentInterval 255s
attr unit s
par TrainTopology.BCUUe[3].ipv4.igmp startupQueryInterval 31.25s
attr unit s
par TrainTopology.BCUUe[3].ipv4.igmp startupQueryCount 2
par TrainTopology.BCUUe[3].ipv4.igmp lastMemberQueryInterval 1s
attr unit s
par TrainTopology.BCUUe[3].ipv4.igmp lastMemberQueryCount 2
par TrainTopology.BCUUe[3].ipv4.igmp unsolicitedReportInterval 10s
attr unit s
par TrainTopology.BCUUe[3].ipv4.icmp typename "\"inet.networklayer.ipv4.Icmp\""
par TrainTopology.BCUUe[3].ipv4.icmp interfaceTableModule "\"TrainTopology.BCUUe[3].interfaceTable\""
par TrainTopology.BCUUe[3].ipv4.icmp routingTableModule "\"TrainTopology.BCUUe[3].ipv4.routingTable\""
par TrainTopology.BCUUe[3].ipv4.icmp crcMode "\"declared\""
attr enum declared,computed
attr mutable ""
par TrainTopology.BCUUe[3].ipv4.icmp quoteLength 8B
attr mutable ""
attr unit B
par TrainTopology.BCUUe[3].ipv4.mp typename "\"inet.common.MessageDispatcher\""
par TrainTopology.BCUUe[3].ipv4.mp displayStringTextFormat "\"processed %p pk (%l)\""
par TrainTopology.BCUUe[3].ipv4.mp forwardServiceRegistration true
par TrainTopology.BCUUe[3].ipv4.mp forwardProtocolRegistration true
par TrainTopology.BCUUe[3].ipv4.ip typename "\"inet.networklayer.ipv4.Ipv4\""
par TrainTopology.BCUUe[3].ipv4.ip interfaceTableModule "\"TrainTopology.BCUUe[3].interfaceTable\""
par TrainTopology.BCUUe[3].ipv4.ip routingTableModule "\"TrainTopology.BCUUe[3].ipv4.routingTable\""
par TrainTopology.BCUUe[3].ipv4.ip arpModule "\"TrainTopology.BCUUe[3].ipv4.arp\""
par TrainTopology.BCUUe[3].ipv4.ip icmpModule "\"TrainTopology.BCUUe[3].ipv4.icmp\""
par TrainTopology.BCUUe[3].ipv4.ip crcMode "\"declared\""
attr enum declared,computed
par TrainTopology.BCUUe[3].ipv4.ip timeToLive 32
par TrainTopology.BCUUe[3].ipv4.ip multicastTimeToLive 32
par TrainTopology.BCUUe[3].ipv4.ip fragmentTimeout 60s
attr unit s
par TrainTopology.BCUUe[3].ipv4.ip limitedBroadcast false
par TrainTopology.BCUUe[3].ipv4.ip directBroadcastInterfaces "\"\""
scalar TrainTopology.BCUUe[3].ipv4.ip packetDropAddressResolutionFailed:count 0
attr interpolationmode none
attr recordingmode count
attr source packetDropReasonIsAddressResolutionFailed(packetDropped)
attr title "packet drop: address resolution failed, count"
scalar TrainTopology.BCUUe[3].ipv4.ip packetDropAddressResolutionFailed:sum(packetBytes) 0
attr interpolationmode none
attr recordingmode sum(packetBytes)
attr source packetDropReasonIsAddressResolutionFailed(packetDropped)
attr title "packet drop: address resolution failed, sum(packetBytes)"
scalar TrainTopology.BCUUe[3].ipv4.ip packetDropHopLimitReached:count 0
attr interpolationmode none
attr recordingmode count
attr source packetDropReasonIsHopLimitReached(packetDropped)
attr title "packet drop: hop limit reached, count"
scalar TrainTopology.BCUUe[3].ipv4.ip packetDropHopLimitReached:sum(packetBytes) 0
attr interpolationmode none
attr recordingmode sum(packetBytes)
attr source packetDropReasonIsHopLimitReached(packetDropped)
attr title "packet drop: hop limit reached, sum(packetBytes)"
scalar TrainTopology.BCUUe[3].ipv4.ip packetDropForwardingDisabled:count 0
attr interpolationmode none
attr recordingmode count
attr source packetDropReasonIsForwardingDisabled(packetDropped)
attr title "packet drop: forwarding disabled, count"
scalar TrainTopology.BCUUe[3].ipv4.ip packetDropForwardingDisabled:sum(packetBytes) 0
attr interpolationmode none
attr recordingmode sum(packetBytes)
attr source packetDropReasonIsForwardingDisabled(packetDropped)
attr title "packet drop: forwarding disabled, sum(packetBytes)"
scalar TrainTopology.BCUUe[3].ipv4.ip packetDropNoInterfaceFound:count 0
attr interpolationmode none
attr recordingmode count
attr source packetDropReasonIsNoInterfaceFound(packetDropped)
attr title "packet drop: no interface found, count"
scalar TrainTopology.BCUUe[3].ipv4.ip packetDropNoInterfaceFound:sum(packetBytes) 0
attr interpolationmode none
attr recordingmode sum(packetBytes)
attr source packetDropReasonIsNoInterfaceFound(packetDropped)
attr title "packet drop: no interface found, sum(packetBytes)"
scalar TrainTopology.BCUUe[3].ipv4.ip packetDropNoRouteFound:count 0
attr interpolationmode none
attr recordingmode count
attr source packetDropReasonIsNoRouteFound(packetDropped)
attr title "packet drop: no route found, count"
scalar TrainTopology.BCUUe[3].ipv4.ip packetDropNoRouteFound:sum(packetBytes) 0
attr interpolationmode none
attr recordingmode sum(packetBytes)
attr source packetDropReasonIsNoRouteFound(packetDropped)
attr title "packet drop: no route found, sum(packetBytes)"
scalar TrainTopology.BCUUe[3].ipv4.ip packetDropUndefined:count 0
attr interpolationmode none
attr recordingmode count
attr source packetDropReasonIsUndefined(packetDropped)
attr title "packet drop: undefined, count"
scalar TrainTopology.BCUUe[3].ipv4.ip packetDropUndefined:sum(packetBytes) 0
attr interpolationmode none
attr recordingmode sum(packetBytes)
attr source packetDropReasonIsUndefined(packetDropped)
attr title "packet drop: undefined, sum(packetBytes)"
par TrainTopology.BCUUe[3].ipv4.arp typename "\"inet.networklayer.arp.ipv4.GlobalArp\""
par TrainTopology.BCUUe[3].ipv4.arp interfaceTableModule "\"TrainTopology.BCUUe[3].interfaceTable\""
par TrainTopology.BCUUe[3].ipv4.arp addressType "\"ipv4\""
attr enum ipv4,ipv6,mac,moduleid,modulepath
par TrainTopology.BCUUe[3].ipv4.lp typename "\"inet.common.MessageDispatcher\""
par TrainTopology.BCUUe[3].ipv4.lp displayStringTextFormat "\"processed %p pk (%l)\""
par TrainTopology.BCUUe[3].ipv4.lp forwardServiceRegistration true
par TrainTopology.BCUUe[3].ipv4.lp forwardProtocolRegistration true
par TrainTopology.BCUUe[3].ipv4 typename "\"inet.networklayer.ipv4.Ipv4NetworkLayer\""
par TrainTopology.BCUUe[3].ipv4 forwarding true
par TrainTopology.BCUUe[3].ipv4 multicastForwarding false
par TrainTopology.BCUUe[3].ipv4 interfaceTableModule "\"TrainTopology.BCUUe[3].interfaceTable\""
par TrainTopology.BCUUe[3].ipv4 displayStringTextFormat "\"%i\""
par TrainTopology.BCUUe[3].udp typename "\"inet.transportlayer.udp.Udp\""
par TrainTopology.BCUUe[3].udp interfaceTableModule "\"TrainTopology.BCUUe[3].interfaceTable\""
par TrainTopology.BCUUe[3].udp icmpModule "\"^.ipv4.icmp\""
par TrainTopology.BCUUe[3].udp icmpv6Module "\"^.ipv6.icmpv6\""
par TrainTopology.BCUUe[3].udp crcMode "\"declared\""
attr enum disabled,declared,computed
par TrainTopology.BCUUe[3].udp defaultMulticastLoop true
scalar TrainTopology.BCUUe[3].udp packetReceived:count 0
attr interpolationmode none
attr recordingmode count
attr source packetReceived
attr title "packets received, count"
scalar TrainTopology.BCUUe[3].udp packetReceived:sum(packetBytes) 0
attr interpolationmode none
attr recordingmode sum(packetBytes)
attr source packetReceived
attr title "packets received, sum(packetBytes)"
scalar TrainTopology.BCUUe[3].udp packetSent:count 3
attr interpolationmode none
attr recordingmode count
attr source packetSent
attr title "packets sent, count"
scalar TrainTopology.BCUUe[3].udp packetSent:sum(packetBytes) 288
attr interpolationmode none
attr recordingmode sum(packetBytes)
attr source packetSent
attr title "packets sent, sum(packetBytes)"
scalar TrainTopology.BCUUe[3].udp passedUpPk:count 0
attr interpolationmode none
attr recordingmode count
attr source packetSentToUpper
attr title "packets passed up, count"
scalar TrainTopology.BCUUe[3].udp droppedPkWrongPort:count 0
attr interpolationmode none
attr recordingmode count
attr source packetDropReasonIsNoPortFound(packetDropped)
attr title "packets dropped (wrong port), count"
scalar TrainTopology.BCUUe[3].udp droppedPkBadChecksum:count 0
attr interpolationmode none
attr recordingmode count
attr source packetDropReasonIsIncorrectlyReceived(packetDropped)
attr title "packets dropped (checksum error), count"
par TrainTopology.BCUUe[3].tcp typename "\"inet.transportlayer.tcp.Tcp\""
par TrainTopology.BCUUe[3].tcp crcMode "\"declared\""
attr enum declared,computed
par TrainTopology.BCUUe[3].tcp advertisedWindow 7504
par TrainTopology.BCUUe[3].tcp delayedAcksEnabled false
par TrainTopology.BCUUe[3].tcp nagleEnabled true
par TrainTopology.BCUUe[3].tcp limitedTransmitEnabled false
par TrainTopology.BCUUe[3].tcp increasedIWEnabled false
par TrainTopology.BCUUe[3].tcp sackSupport false
par TrainTopology.BCUUe[3].tcp windowScalingSupport false
par TrainTopology.BCUUe[3].tcp windowScalingFactor -1
par TrainTopology.BCUUe[3].tcp timestampSupport false
par TrainTopology.BCUUe[3].tcp mss 536
par TrainTopology.BCUUe[3].tcp msl 120s
attr unit s
par TrainTopology.BCUUe[3].tcp tcpAlgorithmClass "\"TcpReno\""
attr enum TcpVegas,TcpWestwood,TcpNewReno,TcpReno,TcpTahoe,TcpNoCongestionControl
par TrainTopology.BCUUe[3].tcp useDataNotification false
par TrainTopology.BCUUe[3].tcp dupthresh 3
par TrainTopology.BCUUe[3].tcp initialSsthresh 4294967295
par TrainTopology.BCUUe[3].tcp stopOperationExtraTime 0s
attr unit s
par TrainTopology.BCUUe[3].tcp stopOperationTimeout 2s
attr unit s
par TrainTopology.BCUUe[3].tcp ecnWillingness false
par TrainTopology.BCUUe[3].tcp dctcpGamma 0.0625
par TrainTopology.BCUUe[3].at typename "\"inet.common.MessageDispatcher\""
par TrainTopology.BCUUe[3].at displayStringTextFormat "\"processed %p pk (%l)\""
par TrainTopology.BCUUe[3].at forwardServiceRegistration true
par TrainTopology.BCUUe[3].at forwardProtocolRegistration true
par TrainTopology.BCUUe[3].tn typename "\"inet.common.MessageDispatcher\""
par TrainTopology.BCUUe[3].tn displayStringTextFormat "\"processed %p pk (%l)\""
par TrainTopology.BCUUe[3].tn forwardServiceRegistration true
par TrainTopology.BCUUe[3].tn forwardProtocolRegistration true
par TrainTopology.BCUUe[3].nl typename "\"inet.common.MessageDispatcher\""
par TrainTopology.BCUUe[3].nl displayStringTextFormat "\"processed %p pk (%l)\""
par TrainTopology.BCUUe[3].nl forwardServiceRegistration true
par TrainTopology.BCUUe[3].nl forwardProtocolRegistration true
par TrainTopology.BCUUe[3].dstt typename "\"TSN5GTranslator\""
par TrainTopology.BCUUe[3].dstt localPort 12340
attr mutable ""
par TrainTopology.BCUUe[3].dstt destPort 1000
attr mutable ""
par TrainTopology.BCUUe[3].dstt destAddress "\"server\""
attr mutable ""
par TrainTopology.BCUUe[3].dstt tos -1
par TrainTopology.BCUUe[3] typename "\"TsnUe\""
par TrainTopology.BCUUe[3] numApps 0
par TrainTopology.BCUUe[3] hasUdp true
par TrainTopology.BCUUe[3] hasTcp true
par TrainTopology.BCUUe[3] hasSctp false
par TrainTopology.BCUUe[3] nodeType "\"UE\""
par TrainTopology.BCUUe[3] masterId 0
attr mutable ""
par TrainTopology.BCUUe[3] macNodeId 1032
attr mutable ""
par TrainTopology.BCUUe[3] macCellId 0
attr mutable ""
par TrainTopology.BCUUe[3] nicType "\"NRNicUe\""
par TrainTopology.BCUUe[3] hasIpv4 true
par TrainTopology.BCUUe[3] hasIpv6 false
par TrainTopology.BCUUe[3] numEthInterfaces 0
par TrainTopology.BCUUe[3] extHostAddress "\"\""
par TrainTopology.BCUUe[3] numLoInterfaces 1
par TrainTopology.BCUUe[3] numPcapRecorders 0
par TrainTopology.BCUUe[3] hasRNISupport false
par TrainTopology.BCUUe[3] nrMasterId 2
attr mutable ""
par TrainTopology.BCUUe[3] nrMacNodeId 2056
attr mutable ""
par TrainTopology.BCUUe[3] nrMacCellId 1
attr mutable ""
par TrainTopology.configurator typename "\"inet.networklayer.configurator.ipv4.Ipv4NetworkConfigurator\""
par TrainTopology.configurator minLinkWeight 0.001
par TrainTopology.configurator configureIsolatedNetworksSeparatly false
par TrainTopology.configurator config "<config>...</config> at content:1"
par TrainTopology.configurator assignAddresses true
par TrainTopology.configurator assignUniqueAddresses true
par TrainTopology.configurator assignDisjunctSubnetAddresses true
par TrainTopology.configurator addStaticRoutes true
par TrainTopology.configurator addDefaultRoutes true
par TrainTopology.configurator addSubnetRoutes true
par TrainTopology.configurator addDirectRoutes true
par TrainTopology.configurator optimizeRoutes true
par TrainTopology.configurator dumpTopology false
par TrainTopology.configurator dumpLinks false
par TrainTopology.configurator dumpAddresses false
par TrainTopology.configurator dumpRoutes false
par TrainTopology.configurator dumpConfig "\"\""
par TrainTopology typename "\"train_topology.TrainTopology\""
par TrainTopology numHVAC 4
par TrainTopology numFAS 4
par TrainTopology numPIS 4
par TrainTopology numTCU 4
par TrainTopology numBCU 4

