file 702643 1710828916                                          
version 3
run test1-0-20240318-04:10:47-3650
attr configname test1
attr datetime 20240318-04:10:47
attr datetimef 20240318-041047
attr experiment test1
attr inifile omnetpp.ini
attr iterationvars ""
attr iterationvarsd ""
attr iterationvarsf ""
attr measurement ""
attr network TrainTopology
attr processid 3650
attr repetition 0
attr replication #0
attr resultdir results
attr runnumber 0
attr seedset 0
config image-path ../../inet4.5/images:../../simu5G/images
config network TrainTopology
config sim-time-limit 15.0s
config *.gnb*.numX2Apps 1
config *.gnb*.x2App[*].server.localPort "5000 + ancestorIndex(1)"
config *.gnb1.x2App[0].client.connectAddress "\"gnb2%x2ppp0\""
config *.gnb2.x2App[0].client.connectAddress "\"gnb1%x2ppp0\""
config *.*.dstt.destAddress "\"server\""
config *.*Ue[0].masterId 0
config *.*Ue[0].nrMacCellId 1
config *.*Ue[0].nrMasterId 1
config *.*Ue[1].masterId 0
config *.*Ue[1].nrMacCellId 1
config *.*Ue[1].nrMasterId 1
config *.*Ue[2].masterId 0
config *.*Ue[2].nrMacCellId 1
config *.*Ue[2].nrMasterId 2
config *.*Ue[3].masterId 0
config *.*Ue[3].nrMacCellId 1
config *.*Ue[3].nrMasterId 2
config *.switch3.macTable.forwardingTable "[{address:\"0A-AA-00-00-00-01\", interface:\"eth2\"}]"
config *.T*Client*.numApps 1
config *.T*Client*.app[0].typename UdpBasicApp
config *.T*Client*.app[0].display-name besteffort
config *.T*Client*.app[0].destAddresses "\"server\""
config *.T*Client*.app[0].destPort 1000
config *.T*Client*.app[0].localPort 1000
config *.T*Client*.app[0].messageLength 20B
config *.T*Client*.app[0].sendInterval 0.03s
config *.T*Client*.app[0].startTime 0.1s
config *.T*Client*.app[0].stopTime 1.1s
config *.B*Client*.numApps 1
config *.B*Client*.app[0].typename UdpBasicApp
config *.B*Client*.app[0].display-name video
config *.B*Client*.app[0].destAddresses "\"server\""
config *.B*Client*.app[0].destPort 1001
config *.B*Client*.app[0].localPort 1000
config *.B*Client*.app[0].messageLength 30B
config *.B*Client*.app[0].sendInterval 0.02s
config *.B*Client*.app[0].startTime 0.2s
config *.B*Client*.app[0].stopTime 10s
config *.server.numApps 2
config *.server.app[0].typename UdpSinkApp
config *.server.app[1].typename UdpSinkApp
config *.server.app[0].display-name besteffort
config *.server.app[1].display-name video
config *.server.app[0].io.localPort 1000
config *.server.app[1].io.localPort 1001
config *.*.hasOutgoingStreams true
config *.*.hasIncomingStreams true
config *.*Client*.bridging.streamIdentifier.identifier.mapping "[{stream: \"besteffort\", packetFilter: expr(udp.destPort == 1000)},\n\t\t\t\t\t\t\t\t\t\t\t\t\t\t\t{stream: \"video\", packetFilter: expr(udp.destPort == 1001)}]"
config *.*Client*.bridging.streamCoder.encoder.mapping "[{stream: \"besteffort\", pcp: 0},\n\t\t\t\t\t\t\t\t\t\t\t\t\t{stream: \"video\", pcp: 4}]"
config *.server.bridging.streamIdentifier.identifier.mapping "[{stream: \"besteffort\", packetFilter: expr(udp.destPort == 1000)},\n\t\t\t\t\t\t\t\t\t\t\t\t\t\t\t{stream: \"video\", packetFilter: expr(udp.destPort == 1001)}]"
config *.server.bridging.streamCoder.encoder.mapping "[{stream: \"besteffort\", pcp: 0},\n\t\t\t\t\t\t\t\t\t\t\t\t\t{stream: \"video\", pcp: 4}]"
config *.switch*.bridging.streamCoder.decoder.mapping "[{pcp: 0, stream: \"besteffort\"},\n                                                 {pcp: 4, stream: \"video\"}]"
config *.switch*.bridging.streamCoder.encoder.mapping "[{stream: \"besteffort\", pcp: 0},\n\t\t\t\t\t\t\t\t\t\t\t\t\t{stream: \"video\", pcp: 4}]"
config *.switch*.hasIngressTrafficFiltering true
config *.switch*.bridging.streamFilter.ingress.typename SimpleIeee8021qFilter
config *.switch*.bridging.streamFilter.ingress.numStreams 2
config *.switch*.bridging.streamFilter.ingress.classifier.mapping "{besteffort: 0, video: 1}"
config *.switch*.bridging.streamFilter.ingress.*[0].display-name besteffort
config *.switch*.bridging.streamFilter.ingress.*[1].display-name video
config *.switch*.bridging.streamFilter.ingress.meter[*].typename EligibilityTimeMeter
config *.switch*.bridging.streamFilter.ingress.meter[*].committedInformationRate 20Mbps
config *.switch*.bridging.streamFilter.ingress.meter[*].committedBurstSize 10kB
config *.switch*.bridging.streamFilter.ingress.filter[*].typename EligibilityTimeFilter
config *.switch*.hasEgressTrafficShaping true
config *.switch*.bridging.directionReverser.reverser.excludeEncapsulationProtocols "[\"ieee8021qctag\"]"
config *.switch*.eth[*].macLayer.queue.numTrafficClasses 2
config *.switch*.eth[*].macLayer.queue.*[0].display-name besteffort
config *.switch*.eth[*].macLayer.queue.*[1].display-name video
config *.switch*.eth[*].macLayer.queue.queue[0].typename EligibilityTimeQueue
config *.switch*.eth[*].macLayer.queue.queue[1].typename EligibilityTimeQueue
config *.switch*.eth[*].macLayer.queue.transmissionSelectionAlgorithm[0].typename Ieee8021qAsynchronousShaper
config *.switch*.eth[*].macLayer.queue.transmissionSelectionAlgorithm[0].idleSlope 42.68Mbps
config *.switch*.eth[*].macLayer.queue.transmissionSelectionAlgorithm[1].typename Ieee8021qAsynchronousShaper
config *.switch*.eth[*].macLayer.queue.transmissionSelectionAlgorithm[1].idleSlope 21.34Mbps
config **.downlink_interference true
config **.uplink_interference true
config **.ueTxPower 26
config **.eNodeBTxPower 46
config **.targetBler 0.01
config **.blerShift 5
config **.fbPeriod 40

vector 0 TrainTopology.server.eth[0].phyLayer.interFrameGapInserter interpacketGap:vector ETV
attr interpolationmode sample-hold
attr recordingmode vector
attr source "count(interpacketGapStarted) - count(interpacketGapEnded)"
attr title "interpacket gap state"
attr type int
vector 1 TrainTopology.server.eth[0].phyLayer.transmitter transmitting:vector ETV
attr interpolationmode sample-hold
attr recordingmode vector
attr source "count(transmissionStarted) - count(transmissionEnded)"
attr title "transmitting state"
attr type int
vector 2 TrainTopology.server.udp passedUpPk:vector(count) ETV
attr interpolationmode none
attr recordingmode vector(count)
attr source packetSentToUpper
attr title "packets passed up, count"
vector 3 TrainTopology.server.udp droppedPkWrongPort:vector(count) ETV
attr interpolationmode none
attr recordingmode vector(count)
attr source packetDropReasonIsNoPortFound(packetDropped)
attr title "packets dropped (wrong port), count"
vector 4 TrainTopology.server.udp droppedPkBadChecksum:vector(count) ETV
attr interpolationmode none
attr recordingmode vector(count)
attr source packetDropReasonIsIncorrectlyReceived(packetDropped)
attr title "packets dropped (checksum error), count"
vector 5 TrainTopology.switch1.eth[0].phyLayer.interFrameGapInserter interpacketGap:vector ETV
attr interpolationmode sample-hold
attr recordingmode vector
attr source "count(interpacketGapStarted) - count(interpacketGapEnded)"
attr title "interpacket gap state"
attr type int
vector 6 TrainTopology.switch1.eth[0].phyLayer.transmitter transmitting:vector ETV
attr interpolationmode sample-hold
attr recordingmode vector
attr source "count(transmissionStarted) - count(transmissionEnded)"
attr title "transmitting state"
attr type int
vector 7 TrainTopology.switch1.eth[1].phyLayer.interFrameGapInserter interpacketGap:vector ETV
attr interpolationmode sample-hold
attr recordingmode vector
attr source "count(interpacketGapStarted) - count(interpacketGapEnded)"
attr title "interpacket gap state"
attr type int
vector 8 TrainTopology.switch1.eth[1].phyLayer.transmitter transmitting:vector ETV
attr interpolationmode sample-hold
attr recordingmode vector
attr source "count(transmissionStarted) - count(transmissionEnded)"
attr title "transmitting state"
attr type int
vector 9 TrainTopology.switch2.eth[0].phyLayer.interFrameGapInserter interpacketGap:vector ETV
attr interpolationmode sample-hold
attr recordingmode vector
attr source "count(interpacketGapStarted) - count(interpacketGapEnded)"
attr title "interpacket gap state"
attr type int
vector 10 TrainTopology.switch2.eth[0].phyLayer.transmitter transmitting:vector ETV
attr interpolationmode sample-hold
attr recordingmode vector
attr source "count(transmissionStarted) - count(transmissionEnded)"
attr title "transmitting state"
attr type int
vector 11 TrainTopology.switch2.eth[1].phyLayer.interFrameGapInserter interpacketGap:vector ETV
attr interpolationmode sample-hold
attr recordingmode vector
attr source "count(interpacketGapStarted) - count(interpacketGapEnded)"
attr title "interpacket gap state"
attr type int
vector 12 TrainTopology.switch2.eth[1].phyLayer.transmitter transmitting:vector ETV
attr interpolationmode sample-hold
attr recordingmode vector
attr source "count(transmissionStarted) - count(transmissionEnded)"
attr title "transmitting state"
attr type int
vector 13 TrainTopology.switch3.eth[0].phyLayer.interFrameGapInserter interpacketGap:vector ETV
attr interpolationmode sample-hold
attr recordingmode vector
attr source "count(interpacketGapStarted) - count(interpacketGapEnded)"
attr title "interpacket gap state"
attr type int
vector 14 TrainTopology.switch3.eth[0].phyLayer.transmitter transmitting:vector ETV
attr interpolationmode sample-hold
attr recordingmode vector
attr source "count(transmissionStarted) - count(transmissionEnded)"
attr title "transmitting state"
attr type int
vector 15 TrainTopology.switch3.eth[1].phyLayer.interFrameGapInserter interpacketGap:vector ETV
attr interpolationmode sample-hold
attr recordingmode vector
attr source "count(interpacketGapStarted) - count(interpacketGapEnded)"
attr title "interpacket gap state"
attr type int
vector 16 TrainTopology.switch3.eth[1].phyLayer.transmitter transmitting:vector ETV
attr interpolationmode sample-hold
attr recordingmode vector
attr source "count(transmissionStarted) - count(transmissionEnded)"
attr title "transmitting state"
attr type int
vector 17 TrainTopology.switch3.eth[2].phyLayer.interFrameGapInserter interpacketGap:vector ETV
attr interpolationmode sample-hold
attr recordingmode vector
attr source "count(interpacketGapStarted) - count(interpacketGapEnded)"
attr title "interpacket gap state"
attr type int
vector 18 TrainTopology.switch3.eth[2].phyLayer.transmitter transmitting:vector ETV
attr interpolationmode sample-hold
attr recordingmode vector
attr source "count(transmissionStarted) - count(transmissionEnded)"
attr title "transmitting state"
attr type int
vector 19 TrainTopology.upf1.ppp[0].ppp transmissionState:vector ETV
attr interpolationmode sample-hold
attr recordingmode vector
attr source transmissionStateChanged
attr title "tx state"
vector 20 TrainTopology.upf1.udp passedUpPk:vector(count) ETV
attr interpolationmode none
attr recordingmode vector(count)
attr source packetSentToUpper
attr title "packets passed up, count"
vector 21 TrainTopology.upf1.udp droppedPkWrongPort:vector(count) ETV
attr interpolationmode none
attr recordingmode vector(count)
attr source packetDropReasonIsNoPortFound(packetDropped)
attr title "packets dropped (wrong port), count"
vector 22 TrainTopology.upf1.udp droppedPkBadChecksum:vector(count) ETV
attr interpolationmode none
attr recordingmode vector(count)
attr source packetDropReasonIsIncorrectlyReceived(packetDropped)
attr title "packets dropped (checksum error), count"
vector 23 TrainTopology.upf1.ethInterface.phyLayer.interFrameGapInserter interpacketGap:vector ETV
attr interpolationmode sample-hold
attr recordingmode vector
attr source "count(interpacketGapStarted) - count(interpacketGapEnded)"
attr title "interpacket gap state"
attr type int
vector 24 TrainTopology.upf1.ethInterface.phyLayer.transmitter transmitting:vector ETV
attr interpolationmode sample-hold
attr recordingmode vector
attr source "count(transmissionStarted) - count(transmissionEnded)"
attr title "transmitting state"
attr type int
vector 25 TrainTopology.upf2.ppp[0].ppp transmissionState:vector ETV
attr interpolationmode sample-hold
attr recordingmode vector
attr source transmissionStateChanged
attr title "tx state"
vector 26 TrainTopology.upf2.udp passedUpPk:vector(count) ETV
attr interpolationmode none
attr recordingmode vector(count)
attr source packetSentToUpper
attr title "packets passed up, count"
vector 27 TrainTopology.upf2.udp droppedPkWrongPort:vector(count) ETV
attr interpolationmode none
attr recordingmode vector(count)
attr source packetDropReasonIsNoPortFound(packetDropped)
attr title "packets dropped (wrong port), count"
vector 28 TrainTopology.upf2.udp droppedPkBadChecksum:vector(count) ETV
attr interpolationmode none
attr recordingmode vector(count)
attr source packetDropReasonIsIncorrectlyReceived(packetDropped)
attr title "packets dropped (checksum error), count"
vector 29 TrainTopology.upf2.ethInterface.phyLayer.interFrameGapInserter interpacketGap:vector ETV
attr interpolationmode sample-hold
attr recordingmode vector
attr source "count(interpacketGapStarted) - count(interpacketGapEnded)"
attr title "interpacket gap state"
attr type int
vector 30 TrainTopology.upf2.ethInterface.phyLayer.transmitter transmitting:vector ETV
attr interpolationmode sample-hold
attr recordingmode vector
attr source "count(transmissionStarted) - count(transmissionEnded)"
attr title "transmitting state"
attr type int
vector 31 TrainTopology.gnb1.pppIf.ppp transmissionState:vector ETV
attr interpolationmode sample-hold
attr recordingmode vector
attr source transmissionStateChanged
attr title "tx state"
vector 32 TrainTopology.gnb1.x2ppp[0].ppp transmissionState:vector ETV
attr interpolationmode sample-hold
attr recordingmode vector
attr source transmissionStateChanged
attr title "tx state"
vector 33 TrainTopology.gnb1.pppMEHostIf.ppp transmissionState:vector ETV
attr interpolationmode sample-hold
attr recordingmode vector
attr source transmissionStateChanged
attr title "tx state"
vector 34 TrainTopology.gnb1.udp passedUpPk:vector(count) ETV
attr interpolationmode none
attr recordingmode vector(count)
attr source packetSentToUpper
attr title "packets passed up, count"
vector 35 TrainTopology.gnb1.udp droppedPkWrongPort:vector(count) ETV
attr interpolationmode none
attr recordingmode vector(count)
attr source packetDropReasonIsNoPortFound(packetDropped)
attr title "packets dropped (wrong port), count"
vector 36 TrainTopology.gnb1.udp droppedPkBadChecksum:vector(count) ETV
attr interpolationmode none
attr recordingmode vector(count)
attr source packetDropReasonIsIncorrectlyReceived(packetDropped)
attr title "packets dropped (checksum error), count"
vector 37 TrainTopology.gnb2.pppIf.ppp transmissionState:vector ETV
attr interpolationmode sample-hold
attr recordingmode vector
attr source transmissionStateChanged
attr title "tx state"
vector 38 TrainTopology.gnb2.x2ppp[0].ppp transmissionState:vector ETV
attr interpolationmode sample-hold
attr recordingmode vector
attr source transmissionStateChanged
attr title "tx state"
vector 39 TrainTopology.gnb2.pppMEHostIf.ppp transmissionState:vector ETV
attr interpolationmode sample-hold
attr recordingmode vector
attr source transmissionStateChanged
attr title "tx state"
vector 40 TrainTopology.gnb2.udp passedUpPk:vector(count) ETV
attr interpolationmode none
attr recordingmode vector(count)
attr source packetSentToUpper
attr title "packets passed up, count"
vector 41 TrainTopology.gnb2.udp droppedPkWrongPort:vector(count) ETV
attr interpolationmode none
attr recordingmode vector(count)
attr source packetDropReasonIsNoPortFound(packetDropped)
attr title "packets dropped (wrong port), count"
vector 42 TrainTopology.gnb2.udp droppedPkBadChecksum:vector(count) ETV
attr interpolationmode none
attr recordingmode vector(count)
attr source packetDropReasonIsIncorrectlyReceived(packetDropped)
attr title "packets dropped (checksum error), count"
vector 43 TrainTopology.TCUClient[0].eth[0].phyLayer.interFrameGapInserter interpacketGap:vector ETV
attr interpolationmode sample-hold
attr recordingmode vector
attr source "count(interpacketGapStarted) - count(interpacketGapEnded)"
attr title "interpacket gap state"
attr type int
vector 44 TrainTopology.TCUClient[0].eth[0].phyLayer.transmitter transmitting:vector ETV
attr interpolationmode sample-hold
attr recordingmode vector
attr source "count(transmissionStarted) - count(transmissionEnded)"
attr title "transmitting state"
attr type int
vector 45 TrainTopology.TCUClient[0].udp passedUpPk:vector(count) ETV
attr interpolationmode none
attr recordingmode vector(count)
attr source packetSentToUpper
attr title "packets passed up, count"
vector 46 TrainTopology.TCUClient[0].udp droppedPkWrongPort:vector(count) ETV
attr interpolationmode none
attr recordingmode vector(count)
attr source packetDropReasonIsNoPortFound(packetDropped)
attr title "packets dropped (wrong port), count"
vector 47 TrainTopology.TCUClient[0].udp droppedPkBadChecksum:vector(count) ETV
attr interpolationmode none
attr recordingmode vector(count)
attr source packetDropReasonIsIncorrectlyReceived(packetDropped)
attr title "packets dropped (checksum error), count"
vector 48 TrainTopology.TCUClient[1].eth[0].phyLayer.interFrameGapInserter interpacketGap:vector ETV
attr interpolationmode sample-hold
attr recordingmode vector
attr source "count(interpacketGapStarted) - count(interpacketGapEnded)"
attr title "interpacket gap state"
attr type int
vector 49 TrainTopology.TCUClient[1].eth[0].phyLayer.transmitter transmitting:vector ETV
attr interpolationmode sample-hold
attr recordingmode vector
attr source "count(transmissionStarted) - count(transmissionEnded)"
attr title "transmitting state"
attr type int
vector 50 TrainTopology.TCUClient[1].udp passedUpPk:vector(count) ETV
attr interpolationmode none
attr recordingmode vector(count)
attr source packetSentToUpper
attr title "packets passed up, count"
vector 51 TrainTopology.TCUClient[1].udp droppedPkWrongPort:vector(count) ETV
attr interpolationmode none
attr recordingmode vector(count)
attr source packetDropReasonIsNoPortFound(packetDropped)
attr title "packets dropped (wrong port), count"
vector 52 TrainTopology.TCUClient[1].udp droppedPkBadChecksum:vector(count) ETV
attr interpolationmode none
attr recordingmode vector(count)
attr source packetDropReasonIsIncorrectlyReceived(packetDropped)
attr title "packets dropped (checksum error), count"
vector 53 TrainTopology.TCUClient[2].eth[0].phyLayer.interFrameGapInserter interpacketGap:vector ETV
attr interpolationmode sample-hold
attr recordingmode vector
attr source "count(interpacketGapStarted) - count(interpacketGapEnded)"
attr title "interpacket gap state"
attr type int
vector 54 TrainTopology.TCUClient[2].eth[0].phyLayer.transmitter transmitting:vector ETV
attr interpolationmode sample-hold
attr recordingmode vector
attr source "count(transmissionStarted) - count(transmissionEnded)"
attr title "transmitting state"
attr type int
vector 55 TrainTopology.TCUClient[2].udp passedUpPk:vector(count) ETV
attr interpolationmode none
attr recordingmode vector(count)
attr source packetSentToUpper
attr title "packets passed up, count"
vector 56 TrainTopology.TCUClient[2].udp droppedPkWrongPort:vector(count) ETV
attr interpolationmode none
attr recordingmode vector(count)
attr source packetDropReasonIsNoPortFound(packetDropped)
attr title "packets dropped (wrong port), count"
vector 57 TrainTopology.TCUClient[2].udp droppedPkBadChecksum:vector(count) ETV
attr interpolationmode none
attr recordingmode vector(count)
attr source packetDropReasonIsIncorrectlyReceived(packetDropped)
attr title "packets dropped (checksum error), count"
vector 58 TrainTopology.TCUClient[3].eth[0].phyLayer.interFrameGapInserter interpacketGap:vector ETV
attr interpolationmode sample-hold
attr recordingmode vector
attr source "count(interpacketGapStarted) - count(interpacketGapEnded)"
attr title "interpacket gap state"
attr type int
vector 59 TrainTopology.TCUClient[3].eth[0].phyLayer.transmitter transmitting:vector ETV
attr interpolationmode sample-hold
attr recordingmode vector
attr source "count(transmissionStarted) - count(transmissionEnded)"
attr title "transmitting state"
attr type int
vector 60 TrainTopology.TCUClient[3].udp passedUpPk:vector(count) ETV
attr interpolationmode none
attr recordingmode vector(count)
attr source packetSentToUpper
attr title "packets passed up, count"
vector 61 TrainTopology.TCUClient[3].udp droppedPkWrongPort:vector(count) ETV
attr interpolationmode none
attr recordingmode vector(count)
attr source packetDropReasonIsNoPortFound(packetDropped)
attr title "packets dropped (wrong port), count"
vector 62 TrainTopology.TCUClient[3].udp droppedPkBadChecksum:vector(count) ETV
attr interpolationmode none
attr recordingmode vector(count)
attr source packetDropReasonIsIncorrectlyReceived(packetDropped)
attr title "packets dropped (checksum error), count"
vector 63 TrainTopology.TCUUe[0].udp passedUpPk:vector(count) ETV
attr interpolationmode none
attr recordingmode vector(count)
attr source packetSentToUpper
attr title "packets passed up, count"
vector 64 TrainTopology.TCUUe[0].udp droppedPkWrongPort:vector(count) ETV
attr interpolationmode none
attr recordingmode vector(count)
attr source packetDropReasonIsNoPortFound(packetDropped)
attr title "packets dropped (wrong port), count"
vector 65 TrainTopology.TCUUe[0].udp droppedPkBadChecksum:vector(count) ETV
attr interpolationmode none
attr recordingmode vector(count)
attr source packetDropReasonIsIncorrectlyReceived(packetDropped)
attr title "packets dropped (checksum error), count"
vector 66 TrainTopology.TCUUe[1].udp passedUpPk:vector(count) ETV
attr interpolationmode none
attr recordingmode vector(count)
attr source packetSentToUpper
attr title "packets passed up, count"
vector 67 TrainTopology.TCUUe[1].udp droppedPkWrongPort:vector(count) ETV
attr interpolationmode none
attr recordingmode vector(count)
attr source packetDropReasonIsNoPortFound(packetDropped)
attr title "packets dropped (wrong port), count"
vector 68 TrainTopology.TCUUe[1].udp droppedPkBadChecksum:vector(count) ETV
attr interpolationmode none
attr recordingmode vector(count)
attr source packetDropReasonIsIncorrectlyReceived(packetDropped)
attr title "packets dropped (checksum error), count"
vector 69 TrainTopology.TCUUe[2].udp passedUpPk:vector(count) ETV
attr interpolationmode none
attr recordingmode vector(count)
attr source packetSentToUpper
attr title "packets passed up, count"
vector 70 TrainTopology.TCUUe[2].udp droppedPkWrongPort:vector(count) ETV
attr interpolationmode none
attr recordingmode vector(count)
attr source packetDropReasonIsNoPortFound(packetDropped)
attr title "packets dropped (wrong port), count"
vector 71 TrainTopology.TCUUe[2].udp droppedPkBadChecksum:vector(count) ETV
attr interpolationmode none
attr recordingmode vector(count)
attr source packetDropReasonIsIncorrectlyReceived(packetDropped)
attr title "packets dropped (checksum error), count"
vector 72 TrainTopology.TCUUe[3].udp passedUpPk:vector(count) ETV
attr interpolationmode none
attr recordingmode vector(count)
attr source packetSentToUpper
attr title "packets passed up, count"
vector 73 TrainTopology.TCUUe[3].udp droppedPkWrongPort:vector(count) ETV
attr interpolationmode none
attr recordingmode vector(count)
attr source packetDropReasonIsNoPortFound(packetDropped)
attr title "packets dropped (wrong port), count"
vector 74 TrainTopology.TCUUe[3].udp droppedPkBadChecksum:vector(count) ETV
attr interpolationmode none
attr recordingmode vector(count)
attr source packetDropReasonIsIncorrectlyReceived(packetDropped)
attr title "packets dropped (checksum error), count"
vector 75 TrainTopology.BCUClient[0].eth[0].phyLayer.interFrameGapInserter interpacketGap:vector ETV
attr interpolationmode sample-hold
attr recordingmode vector
attr source "count(interpacketGapStarted) - count(interpacketGapEnded)"
attr title "interpacket gap state"
attr type int
vector 76 TrainTopology.BCUClient[0].eth[0].phyLayer.transmitter transmitting:vector ETV
attr interpolationmode sample-hold
attr recordingmode vector
attr source "count(transmissionStarted) - count(transmissionEnded)"
attr title "transmitting state"
attr type int
vector 77 TrainTopology.BCUClient[0].udp passedUpPk:vector(count) ETV
attr interpolationmode none
attr recordingmode vector(count)
attr source packetSentToUpper
attr title "packets passed up, count"
vector 78 TrainTopology.BCUClient[0].udp droppedPkWrongPort:vector(count) ETV
attr interpolationmode none
attr recordingmode vector(count)
attr source packetDropReasonIsNoPortFound(packetDropped)
attr title "packets dropped (wrong port), count"
vector 79 TrainTopology.BCUClient[0].udp droppedPkBadChecksum:vector(count) ETV
attr interpolationmode none
attr recordingmode vector(count)
attr source packetDropReasonIsIncorrectlyReceived(packetDropped)
attr title "packets dropped (checksum error), count"
vector 80 TrainTopology.BCUClient[1].eth[0].phyLayer.interFrameGapInserter interpacketGap:vector ETV
attr interpolationmode sample-hold
attr recordingmode vector
attr source "count(interpacketGapStarted) - count(interpacketGapEnded)"
attr title "interpacket gap state"
attr type int
vector 81 TrainTopology.BCUClient[1].eth[0].phyLayer.transmitter transmitting:vector ETV
attr interpolationmode sample-hold
attr recordingmode vector
attr source "count(transmissionStarted) - count(transmissionEnded)"
attr title "transmitting state"
attr type int
vector 82 TrainTopology.BCUClient[1].udp passedUpPk:vector(count) ETV
attr interpolationmode none
attr recordingmode vector(count)
attr source packetSentToUpper
attr title "packets passed up, count"
vector 83 TrainTopology.BCUClient[1].udp droppedPkWrongPort:vector(count) ETV
attr interpolationmode none
attr recordingmode vector(count)
attr source packetDropReasonIsNoPortFound(packetDropped)
attr title "packets dropped (wrong port), count"
vector 84 TrainTopology.BCUClient[1].udp droppedPkBadChecksum:vector(count) ETV
attr interpolationmode none
attr recordingmode vector(count)
attr source packetDropReasonIsIncorrectlyReceived(packetDropped)
attr title "packets dropped (checksum error), count"
vector 85 TrainTopology.BCUClient[2].eth[0].phyLayer.interFrameGapInserter interpacketGap:vector ETV
attr interpolationmode sample-hold
attr recordingmode vector
attr source "count(interpacketGapStarted) - count(interpacketGapEnded)"
attr title "interpacket gap state"
attr type int
vector 86 TrainTopology.BCUClient[2].eth[0].phyLayer.transmitter transmitting:vector ETV
attr interpolationmode sample-hold
attr recordingmode vector
attr source "count(transmissionStarted) - count(transmissionEnded)"
attr title "transmitting state"
attr type int
vector 87 TrainTopology.BCUClient[2].udp passedUpPk:vector(count) ETV
attr interpolationmode none
attr recordingmode vector(count)
attr source packetSentToUpper
attr title "packets passed up, count"
vector 88 TrainTopology.BCUClient[2].udp droppedPkWrongPort:vector(count) ETV
attr interpolationmode none
attr recordingmode vector(count)
attr source packetDropReasonIsNoPortFound(packetDropped)
attr title "packets dropped (wrong port), count"
vector 89 TrainTopology.BCUClient[2].udp droppedPkBadChecksum:vector(count) ETV
attr interpolationmode none
attr recordingmode vector(count)
attr source packetDropReasonIsIncorrectlyReceived(packetDropped)
attr title "packets dropped (checksum error), count"
vector 90 TrainTopology.BCUClient[3].eth[0].phyLayer.interFrameGapInserter interpacketGap:vector ETV
attr interpolationmode sample-hold
attr recordingmode vector
attr source "count(interpacketGapStarted) - count(interpacketGapEnded)"
attr title "interpacket gap state"
attr type int
vector 91 TrainTopology.BCUClient[3].eth[0].phyLayer.transmitter transmitting:vector ETV
attr interpolationmode sample-hold
attr recordingmode vector
attr source "count(transmissionStarted) - count(transmissionEnded)"
attr title "transmitting state"
attr type int
vector 92 TrainTopology.BCUClient[3].udp passedUpPk:vector(count) ETV
attr interpolationmode none
attr recordingmode vector(count)
attr source packetSentToUpper
attr title "packets passed up, count"
vector 93 TrainTopology.BCUClient[3].udp droppedPkWrongPort:vector(count) ETV
attr interpolationmode none
attr recordingmode vector(count)
attr source packetDropReasonIsNoPortFound(packetDropped)
attr title "packets dropped (wrong port), count"
vector 94 TrainTopology.BCUClient[3].udp droppedPkBadChecksum:vector(count) ETV
attr interpolationmode none
attr recordingmode vector(count)
attr source packetDropReasonIsIncorrectlyReceived(packetDropped)
attr title "packets dropped (checksum error), count"
vector 95 TrainTopology.BCUUe[0].udp passedUpPk:vector(count) ETV
attr interpolationmode none
attr recordingmode vector(count)
attr source packetSentToUpper
attr title "packets passed up, count"
vector 96 TrainTopology.BCUUe[0].udp droppedPkWrongPort:vector(count) ETV
attr interpolationmode none
attr recordingmode vector(count)
attr source packetDropReasonIsNoPortFound(packetDropped)
attr title "packets dropped (wrong port), count"
vector 97 TrainTopology.BCUUe[0].udp droppedPkBadChecksum:vector(count) ETV
attr interpolationmode none
attr recordingmode vector(count)
attr source packetDropReasonIsIncorrectlyReceived(packetDropped)
attr title "packets dropped (checksum error), count"
vector 98 TrainTopology.BCUUe[1].udp passedUpPk:vector(count) ETV
attr interpolationmode none
attr recordingmode vector(count)
attr source packetSentToUpper
attr title "packets passed up, count"
vector 99 TrainTopology.BCUUe[1].udp droppedPkWrongPort:vector(count) ETV
attr interpolationmode none
attr recordingmode vector(count)
attr source packetDropReasonIsNoPortFound(packetDropped)
attr title "packets dropped (wrong port), count"
vector 100 TrainTopology.BCUUe[1].udp droppedPkBadChecksum:vector(count) ETV
attr interpolationmode none
attr recordingmode vector(count)
attr source packetDropReasonIsIncorrectlyReceived(packetDropped)
attr title "packets dropped (checksum error), count"
vector 101 TrainTopology.BCUUe[2].udp passedUpPk:vector(count) ETV
attr interpolationmode none
attr recordingmode vector(count)
attr source packetSentToUpper
attr title "packets passed up, count"
vector 102 TrainTopology.BCUUe[2].udp droppedPkWrongPort:vector(count) ETV
attr interpolationmode none
attr recordingmode vector(count)
attr source packetDropReasonIsNoPortFound(packetDropped)
attr title "packets dropped (wrong port), count"
vector 103 TrainTopology.BCUUe[2].udp droppedPkBadChecksum:vector(count) ETV
attr interpolationmode none
attr recordingmode vector(count)
attr source packetDropReasonIsIncorrectlyReceived(packetDropped)
attr title "packets dropped (checksum error), count"
vector 104 TrainTopology.BCUUe[3].udp passedUpPk:vector(count) ETV
attr interpolationmode none
attr recordingmode vector(count)
attr source packetSentToUpper
attr title "packets passed up, count"
vector 105 TrainTopology.BCUUe[3].udp droppedPkWrongPort:vector(count) ETV
attr interpolationmode none
attr recordingmode vector(count)
attr source packetDropReasonIsNoPortFound(packetDropped)
attr title "packets dropped (wrong port), count"
vector 106 TrainTopology.BCUUe[3].udp droppedPkBadChecksum:vector(count) ETV
attr interpolationmode none
attr recordingmode vector(count)
attr source packetDropReasonIsIncorrectlyReceived(packetDropped)
attr title "packets dropped (checksum error), count"
vector 107 TrainTopology.TCUUe[0].cellularNic.phy servingCell:vector ETV
attr recordingmode vector
attr source servingCell
attr title "ID of the serving eNodeB for the UE"
attr unit ""
vector 108 TrainTopology.TCUUe[0].cellularNic.nrPhy servingCell:vector ETV
attr recordingmode vector
attr source servingCell
attr title "ID of the serving eNodeB for the UE"
attr unit ""
vector 109 TrainTopology.TCUUe[1].cellularNic.phy servingCell:vector ETV
attr recordingmode vector
attr source servingCell
attr title "ID of the serving eNodeB for the UE"
attr unit ""
vector 110 TrainTopology.TCUUe[1].cellularNic.nrPhy servingCell:vector ETV
attr recordingmode vector
attr source servingCell
attr title "ID of the serving eNodeB for the UE"
attr unit ""
vector 111 TrainTopology.TCUUe[2].cellularNic.phy servingCell:vector ETV
attr recordingmode vector
attr source servingCell
attr title "ID of the serving eNodeB for the UE"
attr unit ""
vector 112 TrainTopology.TCUUe[2].cellularNic.nrPhy servingCell:vector ETV
attr recordingmode vector
attr source servingCell
attr title "ID of the serving eNodeB for the UE"
attr unit ""
vector 113 TrainTopology.TCUUe[3].cellularNic.phy servingCell:vector ETV
attr recordingmode vector
attr source servingCell
attr title "ID of the serving eNodeB for the UE"
attr unit ""
vector 114 TrainTopology.TCUUe[3].cellularNic.nrPhy servingCell:vector ETV
attr recordingmode vector
attr source servingCell
attr title "ID of the serving eNodeB for the UE"
attr unit ""
vector 115 TrainTopology.BCUUe[0].cellularNic.phy servingCell:vector ETV
attr recordingmode vector
attr source servingCell
attr title "ID of the serving eNodeB for the UE"
attr unit ""
vector 116 TrainTopology.BCUUe[0].cellularNic.nrPhy servingCell:vector ETV
attr recordingmode vector
attr source servingCell
attr title "ID of the serving eNodeB for the UE"
attr unit ""
vector 117 TrainTopology.BCUUe[1].cellularNic.phy servingCell:vector ETV
attr recordingmode vector
attr source servingCell
attr title "ID of the serving eNodeB for the UE"
attr unit ""
vector 118 TrainTopology.BCUUe[1].cellularNic.nrPhy servingCell:vector ETV
attr recordingmode vector
attr source servingCell
attr title "ID of the serving eNodeB for the UE"
attr unit ""
vector 119 TrainTopology.BCUUe[2].cellularNic.phy servingCell:vector ETV
attr recordingmode vector
attr source servingCell
attr title "ID of the serving eNodeB for the UE"
attr unit ""
vector 120 TrainTopology.BCUUe[2].cellularNic.nrPhy servingCell:vector ETV
attr recordingmode vector
attr source servingCell
attr title "ID of the serving eNodeB for the UE"
attr unit ""
vector 121 TrainTopology.BCUUe[3].cellularNic.phy servingCell:vector ETV
attr recordingmode vector
attr source servingCell
attr title "ID of the serving eNodeB for the UE"
attr unit ""
vector 122 TrainTopology.BCUUe[3].cellularNic.nrPhy servingCell:vector ETV
attr recordingmode vector
attr source servingCell
attr title "ID of the serving eNodeB for the UE"
attr unit ""
vector 123 TrainTopology.switch1.bridging.streamFilter.ingress.meter[0] numTokens:vector ETV
attr interpolationmode linear
attr moduledisplaypath TrainTopology.switch1.bridging.streamFilter.ingress.besteffort
attr recordingmode vector
attr source tokensChanged
attr title "number of tokens"
attr unit tk
vector 124 TrainTopology.switch1.bridging.streamFilter.ingress.meter[1] numTokens:vector ETV
attr interpolationmode linear
attr moduledisplaypath TrainTopology.switch1.bridging.streamFilter.ingress.video
attr recordingmode vector
attr source tokensChanged
attr title "number of tokens"
attr unit tk
vector 125 TrainTopology.switch1.eth[0].macLayer.queue.transmissionSelectionAlgorithm[0] gateState:vector ETV
attr enum CLOSED,OPEN
attr interpolationmode sample-hold
attr moduledisplaypath TrainTopology.switch1.eth[0].macLayer.queue.besteffort
attr recordingmode vector
attr source gateStateChanged
attr title "gate state"
attr type enum
vector 126 TrainTopology.switch1.eth[0].macLayer.queue.transmissionSelectionAlgorithm[0] remainingEligibilityTime:vector ETV
attr interpolationmode linear
attr moduledisplaypath TrainTopology.switch1.eth[0].macLayer.queue.besteffort
attr recordingmode vector
attr source remainingEligibilityTimeChanged
attr title "remaining eligibility time"
attr unit s
vector 127 TrainTopology.switch1.eth[0].macLayer.queue.transmissionSelectionAlgorithm[1] gateState:vector ETV
attr enum CLOSED,OPEN
attr interpolationmode sample-hold
attr moduledisplaypath TrainTopology.switch1.eth[0].macLayer.queue.video
attr recordingmode vector
attr source gateStateChanged
attr title "gate state"
attr type enum
vector 128 TrainTopology.switch1.eth[0].macLayer.queue.transmissionSelectionAlgorithm[1] remainingEligibilityTime:vector ETV
attr interpolationmode linear
attr moduledisplaypath TrainTopology.switch1.eth[0].macLayer.queue.video
attr recordingmode vector
attr source remainingEligibilityTimeChanged
attr title "remaining eligibility time"
attr unit s
vector 129 TrainTopology.switch1.eth[1].macLayer.queue.transmissionSelectionAlgorithm[0] gateState:vector ETV
attr enum CLOSED,OPEN
attr interpolationmode sample-hold
attr moduledisplaypath TrainTopology.switch1.eth[1].macLayer.queue.besteffort
attr recordingmode vector
attr source gateStateChanged
attr title "gate state"
attr type enum
vector 130 TrainTopology.switch1.eth[1].macLayer.queue.transmissionSelectionAlgorithm[0] remainingEligibilityTime:vector ETV
attr interpolationmode linear
attr moduledisplaypath TrainTopology.switch1.eth[1].macLayer.queue.besteffort
attr recordingmode vector
attr source remainingEligibilityTimeChanged
attr title "remaining eligibility time"
attr unit s
vector 131 TrainTopology.switch1.eth[1].macLayer.queue.transmissionSelectionAlgorithm[1] gateState:vector ETV
attr enum CLOSED,OPEN
attr interpolationmode sample-hold
attr moduledisplaypath TrainTopology.switch1.eth[1].macLayer.queue.video
attr recordingmode vector
attr source gateStateChanged
attr title "gate state"
attr type enum
vector 132 TrainTopology.switch1.eth[1].macLayer.queue.transmissionSelectionAlgorithm[1] remainingEligibilityTime:vector ETV
attr interpolationmode linear
attr moduledisplaypath TrainTopology.switch1.eth[1].macLayer.queue.video
attr recordingmode vector
attr source remainingEligibilityTimeChanged
attr title "remaining eligibility time"
attr unit s
vector 133 TrainTopology.switch2.bridging.streamFilter.ingress.meter[0] numTokens:vector ETV
attr interpolationmode linear
attr moduledisplaypath TrainTopology.switch2.bridging.streamFilter.ingress.besteffort
attr recordingmode vector
attr source tokensChanged
attr title "number of tokens"
attr unit tk
vector 134 TrainTopology.switch2.bridging.streamFilter.ingress.meter[1] numTokens:vector ETV
attr interpolationmode linear
attr moduledisplaypath TrainTopology.switch2.bridging.streamFilter.ingress.video
attr recordingmode vector
attr source tokensChanged
attr title "number of tokens"
attr unit tk
vector 135 TrainTopology.switch2.eth[0].macLayer.queue.transmissionSelectionAlgorithm[0] gateState:vector ETV
attr enum CLOSED,OPEN
attr interpolationmode sample-hold
attr moduledisplaypath TrainTopology.switch2.eth[0].macLayer.queue.besteffort
attr recordingmode vector
attr source gateStateChanged
attr title "gate state"
attr type enum
vector 136 TrainTopology.switch2.eth[0].macLayer.queue.transmissionSelectionAlgorithm[0] remainingEligibilityTime:vector ETV
attr interpolationmode linear
attr moduledisplaypath TrainTopology.switch2.eth[0].macLayer.queue.besteffort
attr recordingmode vector
attr source remainingEligibilityTimeChanged
attr title "remaining eligibility time"
attr unit s
vector 137 TrainTopology.switch2.eth[0].macLayer.queue.transmissionSelectionAlgorithm[1] gateState:vector ETV
attr enum CLOSED,OPEN
attr interpolationmode sample-hold
attr moduledisplaypath TrainTopology.switch2.eth[0].macLayer.queue.video
attr recordingmode vector
attr source gateStateChanged
attr title "gate state"
attr type enum
vector 138 TrainTopology.switch2.eth[0].macLayer.queue.transmissionSelectionAlgorithm[1] remainingEligibilityTime:vector ETV
attr interpolationmode linear
attr moduledisplaypath TrainTopology.switch2.eth[0].macLayer.queue.video
attr recordingmode vector
attr source remainingEligibilityTimeChanged
attr title "remaining eligibility time"
attr unit s
vector 139 TrainTopology.switch2.eth[1].macLayer.queue.transmissionSelectionAlgorithm[0] gateState:vector ETV
attr enum CLOSED,OPEN
attr interpolationmode sample-hold
attr moduledisplaypath TrainTopology.switch2.eth[1].macLayer.queue.besteffort
attr recordingmode vector
attr source gateStateChanged
attr title "gate state"
attr type enum
vector 140 TrainTopology.switch2.eth[1].macLayer.queue.transmissionSelectionAlgorithm[0] remainingEligibilityTime:vector ETV
attr interpolationmode linear
attr moduledisplaypath TrainTopology.switch2.eth[1].macLayer.queue.besteffort
attr recordingmode vector
attr source remainingEligibilityTimeChanged
attr title "remaining eligibility time"
attr unit s
vector 141 TrainTopology.switch2.eth[1].macLayer.queue.transmissionSelectionAlgorithm[1] gateState:vector ETV
attr enum CLOSED,OPEN
attr interpolationmode sample-hold
attr moduledisplaypath TrainTopology.switch2.eth[1].macLayer.queue.video
attr recordingmode vector
attr source gateStateChanged
attr title "gate state"
attr type enum
vector 142 TrainTopology.switch2.eth[1].macLayer.queue.transmissionSelectionAlgorithm[1] remainingEligibilityTime:vector ETV
attr interpolationmode linear
attr moduledisplaypath TrainTopology.switch2.eth[1].macLayer.queue.video
attr recordingmode vector
attr source remainingEligibilityTimeChanged
attr title "remaining eligibility time"
attr unit s
vector 143 TrainTopology.switch3.bridging.streamFilter.ingress.meter[0] numTokens:vector ETV
attr interpolationmode linear
attr moduledisplaypath TrainTopology.switch3.bridging.streamFilter.ingress.besteffort
attr recordingmode vector
attr source tokensChanged
attr title "number of tokens"
attr unit tk
vector 144 TrainTopology.switch3.bridging.streamFilter.ingress.meter[1] numTokens:vector ETV
attr interpolationmode linear
attr moduledisplaypath TrainTopology.switch3.bridging.streamFilter.ingress.video
attr recordingmode vector
attr source tokensChanged
attr title "number of tokens"
attr unit tk
vector 145 TrainTopology.switch3.eth[0].macLayer.queue.transmissionSelectionAlgorithm[0] gateState:vector ETV
attr enum CLOSED,OPEN
attr interpolationmode sample-hold
attr moduledisplaypath TrainTopology.switch3.eth[0].macLayer.queue.besteffort
attr recordingmode vector
attr source gateStateChanged
attr title "gate state"
attr type enum
vector 146 TrainTopology.switch3.eth[0].macLayer.queue.transmissionSelectionAlgorithm[0] remainingEligibilityTime:vector ETV
attr interpolationmode linear
attr moduledisplaypath TrainTopology.switch3.eth[0].macLayer.queue.besteffort
attr recordingmode vector
attr source remainingEligibilityTimeChanged
attr title "remaining eligibility time"
attr unit s
vector 147 TrainTopology.switch3.eth[0].macLayer.queue.transmissionSelectionAlgorithm[1] gateState:vector ETV
attr enum CLOSED,OPEN
attr interpolationmode sample-hold
attr moduledisplaypath TrainTopology.switch3.eth[0].macLayer.queue.video
attr recordingmode vector
attr source gateStateChanged
attr title "gate state"
attr type enum
vector 148 TrainTopology.switch3.eth[0].macLayer.queue.transmissionSelectionAlgorithm[1] remainingEligibilityTime:vector ETV
attr interpolationmode linear
attr moduledisplaypath TrainTopology.switch3.eth[0].macLayer.queue.video
attr recordingmode vector
attr source remainingEligibilityTimeChanged
attr title "remaining eligibility time"
attr unit s
vector 149 TrainTopology.switch3.eth[1].macLayer.queue.transmissionSelectionAlgorithm[0] gateState:vector ETV
attr enum CLOSED,OPEN
attr interpolationmode sample-hold
attr moduledisplaypath TrainTopology.switch3.eth[1].macLayer.queue.besteffort
attr recordingmode vector
attr source gateStateChanged
attr title "gate state"
attr type enum
vector 150 TrainTopology.switch3.eth[1].macLayer.queue.transmissionSelectionAlgorithm[0] remainingEligibilityTime:vector ETV
attr interpolationmode linear
attr moduledisplaypath TrainTopology.switch3.eth[1].macLayer.queue.besteffort
attr recordingmode vector
attr source remainingEligibilityTimeChanged
attr title "remaining eligibility time"
attr unit s
vector 151 TrainTopology.switch3.eth[1].macLayer.queue.transmissionSelectionAlgorithm[1] gateState:vector ETV
attr enum CLOSED,OPEN
attr interpolationmode sample-hold
attr moduledisplaypath TrainTopology.switch3.eth[1].macLayer.queue.video
attr recordingmode vector
attr source gateStateChanged
attr title "gate state"
attr type enum
vector 152 TrainTopology.switch3.eth[1].macLayer.queue.transmissionSelectionAlgorithm[1] remainingEligibilityTime:vector ETV
attr interpolationmode linear
attr moduledisplaypath TrainTopology.switch3.eth[1].macLayer.queue.video
attr recordingmode vector
attr source remainingEligibilityTimeChanged
attr title "remaining eligibility time"
attr unit s
vector 153 TrainTopology.switch3.eth[2].macLayer.queue.transmissionSelectionAlgorithm[0] gateState:vector ETV
attr enum CLOSED,OPEN
attr interpolationmode sample-hold
attr moduledisplaypath TrainTopology.switch3.eth[2].macLayer.queue.besteffort
attr recordingmode vector
attr source gateStateChanged
attr title "gate state"
attr type enum
vector 154 TrainTopology.switch3.eth[2].macLayer.queue.transmissionSelectionAlgorithm[0] remainingEligibilityTime:vector ETV
attr interpolationmode linear
attr moduledisplaypath TrainTopology.switch3.eth[2].macLayer.queue.besteffort
attr recordingmode vector
attr source remainingEligibilityTimeChanged
attr title "remaining eligibility time"
attr unit s
vector 155 TrainTopology.switch3.eth[2].macLayer.queue.transmissionSelectionAlgorithm[1] gateState:vector ETV
attr enum CLOSED,OPEN
attr interpolationmode sample-hold
attr moduledisplaypath TrainTopology.switch3.eth[2].macLayer.queue.video
attr recordingmode vector
attr source gateStateChanged
attr title "gate state"
attr type enum
vector 156 TrainTopology.switch3.eth[2].macLayer.queue.transmissionSelectionAlgorithm[1] remainingEligibilityTime:vector ETV
attr interpolationmode linear
attr moduledisplaypath TrainTopology.switch3.eth[2].macLayer.queue.video
attr recordingmode vector
attr source remainingEligibilityTimeChanged
attr title "remaining eligibility time"
attr unit s
vector 157 TrainTopology.switch1.bridging.streamFilter.ingress.gate[0] gateState:vector ETV
attr enum CLOSED,OPEN
attr interpolationmode sample-hold
attr moduledisplaypath TrainTopology.switch1.bridging.streamFilter.ingress.besteffort
attr recordingmode vector
attr source gateStateChanged
attr title "gate state"
attr type enum
vector 158 TrainTopology.switch1.bridging.streamFilter.ingress.gate[1] gateState:vector ETV
attr enum CLOSED,OPEN
attr interpolationmode sample-hold
attr moduledisplaypath TrainTopology.switch1.bridging.streamFilter.ingress.video
attr recordingmode vector
attr source gateStateChanged
attr title "gate state"
attr type enum
vector 159 TrainTopology.switch1.eth[0].macLayer.queue.transmissionGate[0] gateState:vector ETV
attr enum CLOSED,OPEN
attr interpolationmode sample-hold
attr moduledisplaypath TrainTopology.switch1.eth[0].macLayer.queue.besteffort
attr recordingmode vector
attr source gateStateChanged
attr title "gate state"
attr type enum
vector 160 TrainTopology.switch1.eth[0].macLayer.queue.transmissionGate[0] guardBandState:vector ETV
attr enum ON,OFF
attr interpolationmode sample-hold
attr moduledisplaypath TrainTopology.switch1.eth[0].macLayer.queue.besteffort
attr recordingmode vector
attr source guardBandStateChanged
attr title "guard band state"
attr type enum
vector 161 TrainTopology.switch1.eth[0].macLayer.queue.transmissionGate[1] gateState:vector ETV
attr enum CLOSED,OPEN
attr interpolationmode sample-hold
attr moduledisplaypath TrainTopology.switch1.eth[0].macLayer.queue.video
attr recordingmode vector
attr source gateStateChanged
attr title "gate state"
attr type enum
vector 162 TrainTopology.switch1.eth[0].macLayer.queue.transmissionGate[1] guardBandState:vector ETV
attr enum ON,OFF
attr interpolationmode sample-hold
attr moduledisplaypath TrainTopology.switch1.eth[0].macLayer.queue.video
attr recordingmode vector
attr source guardBandStateChanged
attr title "guard band state"
attr type enum
vector 163 TrainTopology.switch1.eth[1].macLayer.queue.transmissionGate[0] gateState:vector ETV
attr enum CLOSED,OPEN
attr interpolationmode sample-hold
attr moduledisplaypath TrainTopology.switch1.eth[1].macLayer.queue.besteffort
attr recordingmode vector
attr source gateStateChanged
attr title "gate state"
attr type enum
vector 164 TrainTopology.switch1.eth[1].macLayer.queue.transmissionGate[0] guardBandState:vector ETV
attr enum ON,OFF
attr interpolationmode sample-hold
attr moduledisplaypath TrainTopology.switch1.eth[1].macLayer.queue.besteffort
attr recordingmode vector
attr source guardBandStateChanged
attr title "guard band state"
attr type enum
vector 165 TrainTopology.switch1.eth[1].macLayer.queue.transmissionGate[1] gateState:vector ETV
attr enum CLOSED,OPEN
attr interpolationmode sample-hold
attr moduledisplaypath TrainTopology.switch1.eth[1].macLayer.queue.video
attr recordingmode vector
attr source gateStateChanged
attr title "gate state"
attr type enum
vector 166 TrainTopology.switch1.eth[1].macLayer.queue.transmissionGate[1] guardBandState:vector ETV
attr enum ON,OFF
attr interpolationmode sample-hold
attr moduledisplaypath TrainTopology.switch1.eth[1].macLayer.queue.video
attr recordingmode vector
attr source guardBandStateChanged
attr title "guard band state"
attr type enum
vector 167 TrainTopology.switch2.bridging.streamFilter.ingress.gate[0] gateState:vector ETV
attr enum CLOSED,OPEN
attr interpolationmode sample-hold
attr moduledisplaypath TrainTopology.switch2.bridging.streamFilter.ingress.besteffort
attr recordingmode vector
attr source gateStateChanged
attr title "gate state"
attr type enum
vector 168 TrainTopology.switch2.bridging.streamFilter.ingress.gate[1] gateState:vector ETV
attr enum CLOSED,OPEN
attr interpolationmode sample-hold
attr moduledisplaypath TrainTopology.switch2.bridging.streamFilter.ingress.video
attr recordingmode vector
attr source gateStateChanged
attr title "gate state"
attr type enum
vector 169 TrainTopology.switch2.eth[0].macLayer.queue.transmissionGate[0] gateState:vector ETV
attr enum CLOSED,OPEN
attr interpolationmode sample-hold
attr moduledisplaypath TrainTopology.switch2.eth[0].macLayer.queue.besteffort
attr recordingmode vector
attr source gateStateChanged
attr title "gate state"
attr type enum
vector 170 TrainTopology.switch2.eth[0].macLayer.queue.transmissionGate[0] guardBandState:vector ETV
attr enum ON,OFF
attr interpolationmode sample-hold
attr moduledisplaypath TrainTopology.switch2.eth[0].macLayer.queue.besteffort
attr recordingmode vector
attr source guardBandStateChanged
attr title "guard band state"
attr type enum
vector 171 TrainTopology.switch2.eth[0].macLayer.queue.transmissionGate[1] gateState:vector ETV
attr enum CLOSED,OPEN
attr interpolationmode sample-hold
attr moduledisplaypath TrainTopology.switch2.eth[0].macLayer.queue.video
attr recordingmode vector
attr source gateStateChanged
attr title "gate state"
attr type enum
vector 172 TrainTopology.switch2.eth[0].macLayer.queue.transmissionGate[1] guardBandState:vector ETV
attr enum ON,OFF
attr interpolationmode sample-hold
attr moduledisplaypath TrainTopology.switch2.eth[0].macLayer.queue.video
attr recordingmode vector
attr source guardBandStateChanged
attr title "guard band state"
attr type enum
vector 173 TrainTopology.switch2.eth[1].macLayer.queue.transmissionGate[0] gateState:vector ETV
attr enum CLOSED,OPEN
attr interpolationmode sample-hold
attr moduledisplaypath TrainTopology.switch2.eth[1].macLayer.queue.besteffort
attr recordingmode vector
attr source gateStateChanged
attr title "gate state"
attr type enum
vector 174 TrainTopology.switch2.eth[1].macLayer.queue.transmissionGate[0] guardBandState:vector ETV
attr enum ON,OFF
attr interpolationmode sample-hold
attr moduledisplaypath TrainTopology.switch2.eth[1].macLayer.queue.besteffort
attr recordingmode vector
attr source guardBandStateChanged
attr title "guard band state"
attr type enum
vector 175 TrainTopology.switch2.eth[1].macLayer.queue.transmissionGate[1] gateState:vector ETV
attr enum CLOSED,OPEN
attr interpolationmode sample-hold
attr moduledisplaypath TrainTopology.switch2.eth[1].macLayer.queue.video
attr recordingmode vector
attr source gateStateChanged
attr title "gate state"
attr type enum
vector 176 TrainTopology.switch2.eth[1].macLayer.queue.transmissionGate[1] guardBandState:vector ETV
attr enum ON,OFF
attr interpolationmode sample-hold
attr moduledisplaypath TrainTopology.switch2.eth[1].macLayer.queue.video
attr recordingmode vector
attr source guardBandStateChanged
attr title "guard band state"
attr type enum
vector 177 TrainTopology.switch3.bridging.streamFilter.ingress.gate[0] gateState:vector ETV
attr enum CLOSED,OPEN
attr interpolationmode sample-hold
attr moduledisplaypath TrainTopology.switch3.bridging.streamFilter.ingress.besteffort
attr recordingmode vector
attr source gateStateChanged
attr title "gate state"
attr type enum
vector 178 TrainTopology.switch3.bridging.streamFilter.ingress.gate[1] gateState:vector ETV
attr enum CLOSED,OPEN
attr interpolationmode sample-hold
attr moduledisplaypath TrainTopology.switch3.bridging.streamFilter.ingress.video
attr recordingmode vector
attr source gateStateChanged
attr title "gate state"
attr type enum
vector 179 TrainTopology.switch3.eth[0].macLayer.queue.transmissionGate[0] gateState:vector ETV
attr enum CLOSED,OPEN
attr interpolationmode sample-hold
attr moduledisplaypath TrainTopology.switch3.eth[0].macLayer.queue.besteffort
attr recordingmode vector
attr source gateStateChanged
attr title "gate state"
attr type enum
vector 180 TrainTopology.switch3.eth[0].macLayer.queue.transmissionGate[0] guardBandState:vector ETV
attr enum ON,OFF
attr interpolationmode sample-hold
attr moduledisplaypath TrainTopology.switch3.eth[0].macLayer.queue.besteffort
attr recordingmode vector
attr source guardBandStateChanged
attr title "guard band state"
attr type enum
vector 181 TrainTopology.switch3.eth[0].macLayer.queue.transmissionGate[1] gateState:vector ETV
attr enum CLOSED,OPEN
attr interpolationmode sample-hold
attr moduledisplaypath TrainTopology.switch3.eth[0].macLayer.queue.video
attr recordingmode vector
attr source gateStateChanged
attr title "gate state"
attr type enum
vector 182 TrainTopology.switch3.eth[0].macLayer.queue.transmissionGate[1] guardBandState:vector ETV
attr enum ON,OFF
attr interpolationmode sample-hold
attr moduledisplaypath TrainTopology.switch3.eth[0].macLayer.queue.video
attr recordingmode vector
attr source guardBandStateChanged
attr title "guard band state"
attr type enum
vector 183 TrainTopology.switch3.eth[1].macLayer.queue.transmissionGate[0] gateState:vector ETV
attr enum CLOSED,OPEN
attr interpolationmode sample-hold
attr moduledisplaypath TrainTopology.switch3.eth[1].macLayer.queue.besteffort
attr recordingmode vector
attr source gateStateChanged
attr title "gate state"
attr type enum
vector 184 TrainTopology.switch3.eth[1].macLayer.queue.transmissionGate[0] guardBandState:vector ETV
attr enum ON,OFF
attr interpolationmode sample-hold
attr moduledisplaypath TrainTopology.switch3.eth[1].macLayer.queue.besteffort
attr recordingmode vector
attr source guardBandStateChanged
attr title "guard band state"
attr type enum
vector 185 TrainTopology.switch3.eth[1].macLayer.queue.transmissionGate[1] gateState:vector ETV
attr enum CLOSED,OPEN
attr interpolationmode sample-hold
attr moduledisplaypath TrainTopology.switch3.eth[1].macLayer.queue.video
attr recordingmode vector
attr source gateStateChanged
attr title "gate state"
attr type enum
vector 186 TrainTopology.switch3.eth[1].macLayer.queue.transmissionGate[1] guardBandState:vector ETV
attr enum ON,OFF
attr interpolationmode sample-hold
attr moduledisplaypath TrainTopology.switch3.eth[1].macLayer.queue.video
attr recordingmode vector
attr source guardBandStateChanged
attr title "guard band state"
attr type enum
vector 187 TrainTopology.switch3.eth[2].macLayer.queue.transmissionGate[0] gateState:vector ETV
attr enum CLOSED,OPEN
attr interpolationmode sample-hold
attr moduledisplaypath TrainTopology.switch3.eth[2].macLayer.queue.besteffort
attr recordingmode vector
attr source gateStateChanged
attr title "gate state"
attr type enum
vector 188 TrainTopology.switch3.eth[2].macLayer.queue.transmissionGate[0] guardBandState:vector ETV
attr enum ON,OFF
attr interpolationmode sample-hold
attr moduledisplaypath TrainTopology.switch3.eth[2].macLayer.queue.besteffort
attr recordingmode vector
attr source guardBandStateChanged
attr title "guard band state"
attr type enum
vector 189 TrainTopology.switch3.eth[2].macLayer.queue.transmissionGate[1] gateState:vector ETV
attr enum CLOSED,OPEN
attr interpolationmode sample-hold
attr moduledisplaypath TrainTopology.switch3.eth[2].macLayer.queue.video
attr recordingmode vector
attr source gateStateChanged
attr title "gate state"
attr type enum
vector 190 TrainTopology.switch3.eth[2].macLayer.queue.transmissionGate[1] guardBandState:vector ETV
attr enum ON,OFF
attr interpolationmode sample-hold
attr moduledisplaypath TrainTopology.switch3.eth[2].macLayer.queue.video
attr recordingmode vector
attr source guardBandStateChanged
attr title "guard band state"
attr type enum
vector 191 TrainTopology.gnb1.sctp "Throughput of Association 46" ETV
vector 192 TrainTopology.gnb2.sctp "Throughput of Association 47" ETV
vector 193 TrainTopology.gnb1.sctp "Throughput of Association 7" ETV
vector 194 TrainTopology.gnb1.sctp "Fast Recovery State 7:10.0.0.34" ETV
vector 195 TrainTopology.gnb2.sctp "Throughput of Association 11" ETV
vector 196 TrainTopology.gnb2.sctp "Fast Recovery State 11:10.0.0.33" ETV
vector 197 TrainTopology.gnb1.x2ppp[0].queue incomingPacketLengths:vector ETV
attr interpolationmode none
attr recordingmode vector
attr source packetLength(packetPushStarted)
attr title "incoming packet lengths"
attr unit b
vector 198 TrainTopology.gnb1.x2ppp[0].queue queueingTime:vector ETV
attr interpolationmode none
attr recordingmode vector
attr source queueingTime(packetPulled)
attr title "queueing times"
attr unit s
vector 199 TrainTopology.gnb1.x2ppp[0].queue outgoingPacketLengths:vector ETV
attr interpolationmode none
attr recordingmode vector
attr source packetLength(packetPulled)
attr title "outgoing packet lengths"
attr unit b
vector 200 TrainTopology.gnb1.x2ppp[0].ppp rcvdPkFromHl:vector(packetBytes) ETV
attr interpolationmode none
attr recordingmode vector(packetBytes)
attr source packetReceivedFromUpper
attr title "packets received from higher layer, packetBytes"
vector 201 TrainTopology.gnb1.x2ppp[0].ppp txPk:vector(packetBytes) ETV
attr interpolationmode none
attr recordingmode vector(packetBytes)
attr source packetSentToLower
attr title "packets transmitted, packetBytes"
vector 202 TrainTopology.gnb1.x2ppp[0].queue queueLength:vector ETV
attr autoWarmupFilter false
attr interpolationmode sample-hold
attr recordingmode vector
attr source "warmup(atomic(constant0(packetPushEnded) + count(packetPushStarted) - count(packetPulled) - count(packetRemoved) - count(packetDropped)))"
attr title "queue length"
attr unit pk
vector 203 TrainTopology.gnb1.x2ppp[0].queue queueBitLength:vector ETV
attr autoWarmupFilter false
attr interpolationmode sample-hold
attr recordingmode vector
attr source "warmup(atomic(constant0(packetPushEnded) + sum(packetLength(packetPushStarted)) - sum(packetLength(packetPulled)) - sum(packetLength(packetRemoved)) - sum(packetLength(packetDropped))))"
attr title "queue bit length"
attr unit b
vector 204 TrainTopology.gnb2.x2ppp[0].queue incomingPacketLengths:vector ETV
attr interpolationmode none
attr recordingmode vector
attr source packetLength(packetPushStarted)
attr title "incoming packet lengths"
attr unit b
vector 205 TrainTopology.gnb2.x2ppp[0].queue queueingTime:vector ETV
attr interpolationmode none
attr recordingmode vector
attr source queueingTime(packetPulled)
attr title "queueing times"
attr unit s
vector 206 TrainTopology.gnb2.x2ppp[0].queue outgoingPacketLengths:vector ETV
attr interpolationmode none
attr recordingmode vector
attr source packetLength(packetPulled)
attr title "outgoing packet lengths"
attr unit b
vector 207 TrainTopology.gnb2.x2ppp[0].ppp rcvdPkFromHl:vector(packetBytes) ETV
attr interpolationmode none
attr recordingmode vector(packetBytes)
attr source packetReceivedFromUpper
attr title "packets received from higher layer, packetBytes"
vector 208 TrainTopology.gnb2.x2ppp[0].ppp txPk:vector(packetBytes) ETV
attr interpolationmode none
attr recordingmode vector(packetBytes)
attr source packetSentToLower
attr title "packets transmitted, packetBytes"
vector 209 TrainTopology.gnb2.x2ppp[0].queue queueLength:vector ETV
attr autoWarmupFilter false
attr interpolationmode sample-hold
attr recordingmode vector
attr source "warmup(atomic(constant0(packetPushEnded) + count(packetPushStarted) - count(packetPulled) - count(packetRemoved) - count(packetDropped)))"
attr title "queue length"
attr unit pk
vector 210 TrainTopology.gnb2.x2ppp[0].queue queueBitLength:vector ETV
attr autoWarmupFilter false
attr interpolationmode sample-hold
attr recordingmode vector
attr source "warmup(atomic(constant0(packetPushEnded) + sum(packetLength(packetPushStarted)) - sum(packetLength(packetPulled)) - sum(packetLength(packetRemoved)) - sum(packetLength(packetDropped))))"
attr title "queue bit length"
attr unit b
vector 211 TrainTopology.gnb2.x2ppp[0].ppp rxPkOk:vector(packetBytes) ETV
attr interpolationmode none
attr recordingmode vector(packetBytes)
attr source rxPkOk
attr title "packets received OK, packetBytes"
vector 212 TrainTopology.gnb2.x2ppp[0].ppp passedUpPk:vector(packetBytes) ETV
attr interpolationmode none
attr recordingmode vector(packetBytes)
attr source packetSentToUpper
attr title "packets passed to higher layer, packetBytes"
vector 213 TrainTopology.gnb1.x2ppp[0].ppp rxPkOk:vector(packetBytes) ETV
attr interpolationmode none
attr recordingmode vector(packetBytes)
attr source rxPkOk
attr title "packets received OK, packetBytes"
vector 214 TrainTopology.gnb1.x2ppp[0].ppp passedUpPk:vector(packetBytes) ETV
attr interpolationmode none
attr recordingmode vector(packetBytes)
attr source packetSentToUpper
attr title "packets passed to higher layer, packetBytes"
vector 215 TrainTopology.gnb2.sctp "Throughput of Association 47" ETV
vector 216 TrainTopology.gnb2.sctp "Peer Rwnd 47" ETV
vector 217 TrainTopology.gnb2.sctp "Fast Recovery State 48:10.0.0.17" ETV
vector 218 TrainTopology.gnb2.sctp "Fast Recovery State 48:10.0.0.10" ETV
vector 219 TrainTopology.gnb2.sctp "Fast Recovery State 48:10.0.0.33" ETV
vector 220 TrainTopology.gnb2.sctp "Fast Recovery State 48:10.0.0.37" ETV
vector 221 TrainTopology.gnb1.sctp "Throughput of Association 46" ETV
vector 222 TrainTopology.gnb1.sctp "Peer Rwnd 46" ETV
vector 223 TrainTopology.gnb1.sctp "Fast Recovery State 49:10.0.0.18" ETV
vector 224 TrainTopology.gnb1.sctp "Fast Recovery State 49:10.0.0.14" ETV
vector 225 TrainTopology.gnb1.sctp "Fast Recovery State 49:10.0.0.34" ETV
vector 226 TrainTopology.gnb1.sctp "Fast Recovery State 49:10.0.0.41" ETV
vector 227 TrainTopology.gnb1.sctp "Peer Rwnd 7" ETV
vector 228 TrainTopology.gnb1.sctp "Fast Recovery State 7:10.0.0.18" ETV
vector 229 TrainTopology.gnb1.sctp "Fast Recovery State 7:10.0.0.14" ETV
vector 230 TrainTopology.gnb1.sctp "Fast Recovery State 7:10.0.0.41" ETV
vector 231 TrainTopology.gnb2.sctp "Peer Rwnd 11" ETV
vector 232 TrainTopology.gnb2.sctp "Fast Recovery State 11:10.0.0.17" ETV
vector 233 TrainTopology.gnb2.sctp "Fast Recovery State 11:10.0.0.10" ETV
vector 234 TrainTopology.gnb2.sctp "Fast Recovery State 11:10.0.0.37" ETV
vector 235 TrainTopology.gnb2.sctp "Slow Start Threshold 48:10.0.0.10" ETV
vector 236 TrainTopology.gnb2.sctp "Congestion Window 48:10.0.0.10" ETV
vector 237 TrainTopology.gnb2.sctp "Bandwidth 48:10.0.0.10" ETV
vector 238 TrainTopology.gnb2.sctp "HB Sent 48:10.0.0.10" ETV
vector 239 TrainTopology.gnb2.sctp "RTO 48:10.0.0.10" ETV
vector 240 TrainTopology.gnb2.sctp "Slow Start Threshold 48:10.0.0.17" ETV
vector 241 TrainTopology.gnb2.sctp "Congestion Window 48:10.0.0.17" ETV
vector 242 TrainTopology.gnb2.sctp "Bandwidth 48:10.0.0.17" ETV
vector 243 TrainTopology.gnb2.sctp "HB Sent 48:10.0.0.17" ETV
vector 244 TrainTopology.gnb2.sctp "RTO 48:10.0.0.17" ETV
vector 245 TrainTopology.gnb2.sctp "Slow Start Threshold 48:10.0.0.33" ETV
vector 246 TrainTopology.gnb2.sctp "Congestion Window 48:10.0.0.33" ETV
vector 247 TrainTopology.gnb2.sctp "Bandwidth 48:10.0.0.33" ETV
vector 248 TrainTopology.gnb2.sctp "RTO 48:10.0.0.33" ETV
vector 249 TrainTopology.gnb2.sctp "Slow Start Threshold 48:10.0.0.37" ETV
vector 250 TrainTopology.gnb2.sctp "Congestion Window 48:10.0.0.37" ETV
vector 251 TrainTopology.gnb2.sctp "Bandwidth 48:10.0.0.37" ETV
vector 252 TrainTopology.gnb2.sctp "HB Sent 48:10.0.0.37" ETV
vector 253 TrainTopology.gnb2.sctp "RTO 48:10.0.0.37" ETV
vector 254 TrainTopology.gnb1.sctp "Slow Start Threshold 49:10.0.0.14" ETV
vector 255 TrainTopology.gnb1.sctp "Congestion Window 49:10.0.0.14" ETV
vector 256 TrainTopology.gnb1.sctp "Bandwidth 49:10.0.0.14" ETV
vector 257 TrainTopology.gnb1.sctp "HB Sent 49:10.0.0.14" ETV
vector 258 TrainTopology.gnb1.sctp "RTO 49:10.0.0.14" ETV
vector 259 TrainTopology.gnb1.sctp "Slow Start Threshold 49:10.0.0.18" ETV
vector 260 TrainTopology.gnb1.sctp "Congestion Window 49:10.0.0.18" ETV
vector 261 TrainTopology.gnb1.sctp "Bandwidth 49:10.0.0.18" ETV
vector 262 TrainTopology.gnb1.sctp "HB Sent 49:10.0.0.18" ETV
vector 263 TrainTopology.gnb1.sctp "RTO 49:10.0.0.18" ETV
vector 264 TrainTopology.gnb1.sctp "Slow Start Threshold 49:10.0.0.34" ETV
vector 265 TrainTopology.gnb1.sctp "Congestion Window 49:10.0.0.34" ETV
vector 266 TrainTopology.gnb1.sctp "Bandwidth 49:10.0.0.34" ETV
vector 267 TrainTopology.gnb1.sctp "RTO 49:10.0.0.34" ETV
vector 268 TrainTopology.gnb1.sctp "Slow Start Threshold 49:10.0.0.41" ETV
vector 269 TrainTopology.gnb1.sctp "Congestion Window 49:10.0.0.41" ETV
vector 270 TrainTopology.gnb1.sctp "Bandwidth 49:10.0.0.41" ETV
vector 271 TrainTopology.gnb1.sctp "HB Sent 49:10.0.0.41" ETV
vector 272 TrainTopology.gnb1.sctp "RTO 49:10.0.0.41" ETV
vector 273 TrainTopology.gnb1.sctp "HB ACK Sent 7:10.0.0.34" ETV
vector 274 TrainTopology.gnb1.sctp "HB Received 7:10.0.0.34" ETV
vector 275 TrainTopology.gnb2.sctp "HB ACK Sent 11:10.0.0.33" ETV
vector 276 TrainTopology.gnb2.sctp "HB Received 11:10.0.0.33" ETV
vector 277 TrainTopology.gnb1.sctp "Slow Start Threshold 7:10.0.0.14" ETV
vector 278 TrainTopology.gnb1.sctp "Congestion Window 7:10.0.0.14" ETV
vector 279 TrainTopology.gnb1.sctp "Bandwidth 7:10.0.0.14" ETV
vector 280 TrainTopology.gnb1.sctp "HB Sent 7:10.0.0.14" ETV
vector 281 TrainTopology.gnb1.sctp "RTO 7:10.0.0.14" ETV
vector 282 TrainTopology.gnb1.sctp "Slow Start Threshold 7:10.0.0.18" ETV
vector 283 TrainTopology.gnb1.sctp "Congestion Window 7:10.0.0.18" ETV
vector 284 TrainTopology.gnb1.sctp "Bandwidth 7:10.0.0.18" ETV
vector 285 TrainTopology.gnb1.sctp "HB Sent 7:10.0.0.18" ETV
vector 286 TrainTopology.gnb1.sctp "RTO 7:10.0.0.18" ETV
vector 287 TrainTopology.gnb1.sctp "Slow Start Threshold 7:10.0.0.34" ETV
vector 288 TrainTopology.gnb1.sctp "Congestion Window 7:10.0.0.34" ETV
vector 289 TrainTopology.gnb1.sctp "Bandwidth 7:10.0.0.34" ETV
vector 290 TrainTopology.gnb1.sctp "RTO 7:10.0.0.34" ETV
vector 291 TrainTopology.gnb1.sctp "Slow Start Threshold 7:10.0.0.41" ETV
vector 292 TrainTopology.gnb1.sctp "Congestion Window 7:10.0.0.41" ETV
vector 293 TrainTopology.gnb1.sctp "Bandwidth 7:10.0.0.41" ETV
vector 294 TrainTopology.gnb1.sctp "HB Sent 7:10.0.0.41" ETV
vector 295 TrainTopology.gnb1.sctp "RTO 7:10.0.0.41" ETV
vector 296 TrainTopology.gnb2.sctp "Slow Start Threshold 11:10.0.0.10" ETV
vector 297 TrainTopology.gnb2.sctp "Congestion Window 11:10.0.0.10" ETV
vector 298 TrainTopology.gnb2.sctp "Bandwidth 11:10.0.0.10" ETV
vector 299 TrainTopology.gnb2.sctp "HB Sent 11:10.0.0.10" ETV
vector 300 TrainTopology.gnb2.sctp "RTO 11:10.0.0.10" ETV
vector 301 TrainTopology.gnb2.sctp "Slow Start Threshold 11:10.0.0.17" ETV
vector 302 TrainTopology.gnb2.sctp "Congestion Window 11:10.0.0.17" ETV
vector 303 TrainTopology.gnb2.sctp "Bandwidth 11:10.0.0.17" ETV
vector 304 TrainTopology.gnb2.sctp "HB Sent 11:10.0.0.17" ETV
vector 305 TrainTopology.gnb2.sctp "RTO 11:10.0.0.17" ETV
vector 306 TrainTopology.gnb2.sctp "Slow Start Threshold 11:10.0.0.33" ETV
vector 307 TrainTopology.gnb2.sctp "Congestion Window 11:10.0.0.33" ETV
vector 308 TrainTopology.gnb2.sctp "Bandwidth 11:10.0.0.33" ETV
vector 309 TrainTopology.gnb2.sctp "RTO 11:10.0.0.33" ETV
vector 310 TrainTopology.gnb2.sctp "Slow Start Threshold 11:10.0.0.37" ETV
vector 311 TrainTopology.gnb2.sctp "Congestion Window 11:10.0.0.37" ETV
vector 312 TrainTopology.gnb2.sctp "Bandwidth 11:10.0.0.37" ETV
vector 313 TrainTopology.gnb2.sctp "HB Sent 11:10.0.0.37" ETV
vector 314 TrainTopology.gnb2.sctp "RTO 11:10.0.0.37" ETV
vector 315 TrainTopology.gnb1.sctp "HB ACK Received 49:10.0.0.34" ETV
vector 316 TrainTopology.gnb1.sctp "RTT 49:10.0.0.34" ETV
vector 317 TrainTopology.gnb2.sctp "HB ACK Received 48:10.0.0.33" ETV
vector 318 TrainTopology.gnb2.sctp "RTT 48:10.0.0.33" ETV
vector 319 TrainTopology.gnb1.sctp "HB ACK Sent 49:10.0.0.34" ETV
vector 320 TrainTopology.gnb1.sctp "HB Received 49:10.0.0.34" ETV
vector 321 TrainTopology.gnb2.sctp "HB ACK Sent 48:10.0.0.33" ETV
vector 322 TrainTopology.gnb2.sctp "HB Received 48:10.0.0.33" ETV
vector 323 TrainTopology.gnb1.sctp "HB ACK Received 7:10.0.0.34" ETV
vector 324 TrainTopology.gnb1.sctp "RTT 7:10.0.0.34" ETV
vector 325 TrainTopology.gnb2.sctp "HB ACK Received 11:10.0.0.33" ETV
vector 326 TrainTopology.gnb2.sctp "RTT 11:10.0.0.33" ETV
vector 327 TrainTopology.gnb1.cellularNic.mac avgServedBlocksUl:vector ETV
attr recordingmode vector
attr source avgServedBlocksUl
attr title "Avg Served Blocks Ul"
attr unit blocks
vector 328 TrainTopology.gnb1.cellularNic.mac avgServedBlocksDl:vector ETV
attr recordingmode vector
attr source avgServedBlocksDl
attr title "Avg Served Blocks Dl"
attr unit blocks
vector 329 TrainTopology.gnb2.cellularNic.mac avgServedBlocksUl:vector ETV
attr recordingmode vector
attr source avgServedBlocksUl
attr title "Avg Served Blocks Ul"
attr unit blocks
vector 330 TrainTopology.gnb2.cellularNic.mac avgServedBlocksDl:vector ETV
attr recordingmode vector
attr source avgServedBlocksDl
attr title "Avg Served Blocks Dl"
attr unit blocks
vector 331 TrainTopology.TCUUe[0].cellularNic.nrChannelModel[0] measuredSinrUl:vector ETV
attr recordingmode vector
attr source measuredSinrUl
attr title "SINR measured at feedback computation, UL"
attr unit dB
vector 332 TrainTopology.TCUUe[0].cellularNic.nrChannelModel[0] measuredSinrDl:vector ETV
attr recordingmode vector
attr source measuredSinrDl
attr title "SINR measured at feedback computation, DL"
attr unit dB
vector 333 TrainTopology.gnb1.cellularNic.mac receivedPacketFromLowerLayer:vector(packetBytes) ETV
attr interpolationmode none
attr recordingmode vector(packetBytes)
attr source receivedPacketFromLowerLayer
vector 334 TrainTopology.TCUUe[1].cellularNic.nrChannelModel[0] measuredSinrUl:vector ETV
attr recordingmode vector
attr source measuredSinrUl
attr title "SINR measured at feedback computation, UL"
attr unit dB
vector 335 TrainTopology.TCUUe[1].cellularNic.nrChannelModel[0] measuredSinrDl:vector ETV
attr recordingmode vector
attr source measuredSinrDl
attr title "SINR measured at feedback computation, DL"
attr unit dB
vector 336 TrainTopology.TCUUe[2].cellularNic.nrChannelModel[0] measuredSinrUl:vector ETV
attr recordingmode vector
attr source measuredSinrUl
attr title "SINR measured at feedback computation, UL"
attr unit dB
vector 337 TrainTopology.TCUUe[2].cellularNic.nrChannelModel[0] measuredSinrDl:vector ETV
attr recordingmode vector
attr source measuredSinrDl
attr title "SINR measured at feedback computation, DL"
attr unit dB
vector 338 TrainTopology.gnb2.cellularNic.mac receivedPacketFromLowerLayer:vector(packetBytes) ETV
attr interpolationmode none
attr recordingmode vector(packetBytes)
attr source receivedPacketFromLowerLayer
vector 339 TrainTopology.TCUUe[3].cellularNic.nrChannelModel[0] measuredSinrUl:vector ETV
attr recordingmode vector
attr source measuredSinrUl
attr title "SINR measured at feedback computation, UL"
attr unit dB
vector 340 TrainTopology.TCUUe[3].cellularNic.nrChannelModel[0] measuredSinrDl:vector ETV
attr recordingmode vector
attr source measuredSinrDl
attr title "SINR measured at feedback computation, DL"
attr unit dB
vector 341 TrainTopology.BCUUe[0].cellularNic.nrChannelModel[0] measuredSinrUl:vector ETV
attr recordingmode vector
attr source measuredSinrUl
attr title "SINR measured at feedback computation, UL"
attr unit dB
vector 342 TrainTopology.BCUUe[0].cellularNic.nrChannelModel[0] measuredSinrDl:vector ETV
attr recordingmode vector
attr source measuredSinrDl
attr title "SINR measured at feedback computation, DL"
attr unit dB
vector 343 TrainTopology.BCUUe[1].cellularNic.nrChannelModel[0] measuredSinrUl:vector ETV
attr recordingmode vector
attr source measuredSinrUl
attr title "SINR measured at feedback computation, UL"
attr unit dB
vector 344 TrainTopology.BCUUe[1].cellularNic.nrChannelModel[0] measuredSinrDl:vector ETV
attr recordingmode vector
attr source measuredSinrDl
attr title "SINR measured at feedback computation, DL"
attr unit dB
vector 345 TrainTopology.BCUUe[2].cellularNic.nrChannelModel[0] measuredSinrUl:vector ETV
attr recordingmode vector
attr source measuredSinrUl
attr title "SINR measured at feedback computation, UL"
attr unit dB
vector 346 TrainTopology.BCUUe[2].cellularNic.nrChannelModel[0] measuredSinrDl:vector ETV
attr recordingmode vector
attr source measuredSinrDl
attr title "SINR measured at feedback computation, DL"
attr unit dB
vector 347 TrainTopology.BCUUe[3].cellularNic.nrChannelModel[0] measuredSinrUl:vector ETV
attr recordingmode vector
attr source measuredSinrUl
attr title "SINR measured at feedback computation, UL"
attr unit dB
vector 348 TrainTopology.BCUUe[3].cellularNic.nrChannelModel[0] measuredSinrDl:vector ETV
attr recordingmode vector
attr source measuredSinrDl
attr title "SINR measured at feedback computation, DL"
attr unit dB
vector 349 TrainTopology.TCUClient[0].app[0] packetSent:vector(packetBytes) ETV
attr interpolationmode none
attr moduledisplaypath TrainTopology.TCUClient[0].besteffort
attr recordingmode vector(packetBytes)
attr source packetSent
attr title "packets sent, packetBytes"
vector 350 TrainTopology.TCUClient[1].app[0] packetSent:vector(packetBytes) ETV
attr interpolationmode none
attr moduledisplaypath TrainTopology.TCUClient[1].besteffort
attr recordingmode vector(packetBytes)
attr source packetSent
attr title "packets sent, packetBytes"
vector 351 TrainTopology.TCUClient[2].app[0] packetSent:vector(packetBytes) ETV
attr interpolationmode none
attr moduledisplaypath TrainTopology.TCUClient[2].besteffort
attr recordingmode vector(packetBytes)
attr source packetSent
attr title "packets sent, packetBytes"
vector 352 TrainTopology.TCUClient[3].app[0] packetSent:vector(packetBytes) ETV
attr interpolationmode none
attr moduledisplaypath TrainTopology.TCUClient[3].besteffort
attr recordingmode vector(packetBytes)
attr source packetSent
attr title "packets sent, packetBytes"
vector 353 TrainTopology.TCUClient[0].udp packetSent:vector(packetBytes) ETV
attr interpolationmode none
attr recordingmode vector(packetBytes)
attr source packetSent
attr title "packets sent, packetBytes"
vector 354 TrainTopology.TCUClient[1].udp packetSent:vector(packetBytes) ETV
attr interpolationmode none
attr recordingmode vector(packetBytes)
attr source packetSent
attr title "packets sent, packetBytes"
vector 355 TrainTopology.TCUClient[2].udp packetSent:vector(packetBytes) ETV
attr interpolationmode none
attr recordingmode vector(packetBytes)
attr source packetSent
attr title "packets sent, packetBytes"
vector 356 TrainTopology.TCUClient[3].udp packetSent:vector(packetBytes) ETV
attr interpolationmode none
attr recordingmode vector(packetBytes)
attr source packetSent
attr title "packets sent, packetBytes"
vector 357 TrainTopology.TCUClient[0].bridging.streamIdentifier.identifier incomingPacketLengths:vector ETV
attr interpolationmode none
attr recordingmode vector
attr source "packetLength(merge(packetPushedIn, packetPulledIn))"
attr title "incoming packet lengths"
attr unit b
vector 358 TrainTopology.TCUClient[0].bridging.streamIdentifier.identifier incomingDataRate:vector ETV
attr interpolationmode linear
attr recordingmode vector
attr source "throughput(merge(packetPushedIn, packetPulledIn))"
attr title "incoming data rate"
attr unit bps
vector 359 TrainTopology.TCUClient[0].bridging.streamIdentifier.identifier outgoingPacketLengths:vector ETV
attr interpolationmode none
attr recordingmode vector
attr source "packetLength(merge(packetPushedOut, packetPulledOut))"
attr title "outgoing packet lengths"
attr unit b
vector 360 TrainTopology.TCUClient[0].bridging.streamIdentifier.identifier outgoingDataRate:vector ETV
attr interpolationmode linear
attr recordingmode vector
attr source "throughput(merge(packetPushedOut, packetPulledOut))"
attr title "outgoing data rate"
attr unit bps
vector 361 TrainTopology.TCUClient[0].bridging.streamCoder.encoder incomingPacketLengths:vector ETV
attr interpolationmode none
attr recordingmode vector
attr source "packetLength(merge(packetPushedIn, packetPulledIn))"
attr title "incoming packet lengths"
attr unit b
vector 362 TrainTopology.TCUClient[0].bridging.streamCoder.encoder incomingDataRate:vector ETV
attr interpolationmode linear
attr recordingmode vector
attr source "throughput(merge(packetPushedIn, packetPulledIn))"
attr title "incoming data rate"
attr unit bps
vector 363 TrainTopology.TCUClient[0].bridging.streamCoder.encoder outgoingPacketLengths:vector ETV
attr interpolationmode none
attr recordingmode vector
attr source "packetLength(merge(packetPushedOut, packetPulledOut))"
attr title "outgoing packet lengths"
attr unit b
vector 364 TrainTopology.TCUClient[0].bridging.streamCoder.encoder outgoingDataRate:vector ETV
attr interpolationmode linear
attr recordingmode vector
attr source "throughput(merge(packetPushedOut, packetPulledOut))"
attr title "outgoing data rate"
attr unit bps
vector 365 TrainTopology.TCUClient[0].ieee8021q.qTagHeaderInserter incomingPacketLengths:vector ETV
attr interpolationmode none
attr recordingmode vector
attr source "packetLength(merge(packetPushedIn, packetPulledIn))"
attr title "incoming packet lengths"
attr unit b
vector 366 TrainTopology.TCUClient[0].ieee8021q.qTagHeaderInserter incomingDataRate:vector ETV
attr interpolationmode linear
attr recordingmode vector
attr source "throughput(merge(packetPushedIn, packetPulledIn))"
attr title "incoming data rate"
attr unit bps
vector 367 TrainTopology.TCUClient[0].ieee8021q.qTagHeaderInserter outgoingPacketLengths:vector ETV
attr interpolationmode none
attr recordingmode vector
attr source "packetLength(merge(packetPushedOut, packetPulledOut))"
attr title "outgoing packet lengths"
attr unit b
vector 368 TrainTopology.TCUClient[0].ieee8021q.qTagHeaderInserter outgoingDataRate:vector ETV
attr interpolationmode linear
attr recordingmode vector
attr source "throughput(merge(packetPushedOut, packetPulledOut))"
attr title "outgoing data rate"
attr unit bps
vector 369 TrainTopology.TCUClient[0].ethernet.macHeaderInserter incomingPacketLengths:vector ETV
attr interpolationmode none
attr recordingmode vector
attr source "packetLength(merge(packetPushedIn, packetPulledIn))"
attr title "incoming packet lengths"
attr unit b
vector 370 TrainTopology.TCUClient[0].ethernet.macHeaderInserter incomingDataRate:vector ETV
attr interpolationmode linear
attr recordingmode vector
attr source "throughput(merge(packetPushedIn, packetPulledIn))"
attr title "incoming data rate"
attr unit bps
vector 371 TrainTopology.TCUClient[0].ethernet.macHeaderInserter outgoingPacketLengths:vector ETV
attr interpolationmode none
attr recordingmode vector
attr source "packetLength(merge(packetPushedOut, packetPulledOut))"
attr title "outgoing packet lengths"
attr unit b
vector 372 TrainTopology.TCUClient[0].ethernet.macHeaderInserter outgoingDataRate:vector ETV
attr interpolationmode linear
attr recordingmode vector
attr source "throughput(merge(packetPushedOut, packetPulledOut))"
attr title "outgoing data rate"
attr unit bps
[...]
150	689928 23 8968 8968 0.255004752 0.255004752 1 0 0 0 0
152	689951 23 8968 8968 0.255004752 0.255004752 1 0 0 0 0
154	689974 23 8968 8968 0.255004752 0.255004752 1 0 0 0 0
156	689997 23 8968 8968 0.255004752 0.255004752 1 0 0 0 0
157	690020 23 8968 8968 0.255004752 0.255004752 1 1 1 1 1
158	690043 23 8968 8968 0.255004752 0.255004752 1 1 1 1 1
160	690066 23 8968 8968 0.255004752 0.255004752 1 0 0 0 0
162	690089 23 8968 8968 0.255004752 0.255004752 1 0 0 0 0
164	690112 23 8968 8968 0.255004752 0.255004752 1 0 0 0 0
166	690135 23 8968 8968 0.255004752 0.255004752 1 0 0 0 0
167	690158 23 8968 8968 0.255004752 0.255004752 1 1 1 1 1
168	690181 23 8968 8968 0.255004752 0.255004752 1 1 1 1 1
170	690204 23 8968 8968 0.255004752 0.255004752 1 0 0 0 0
172	690227 23 8968 8968 0.255004752 0.255004752 1 0 0 0 0
174	690250 23 8968 8968 0.255004752 0.255004752 1 0 0 0 0
176	690273 23 8968 8968 0.255004752 0.255004752 1 0 0 0 0
177	690296 23 8968 8968 0.255004752 0.255004752 1 1 1 1 1
178	690319 23 8968 8968 0.255004752 0.255004752 1 1 1 1 1
180	690342 23 8968 8968 0.255004752 0.255004752 1 0 0 0 0
182	690365 23 8968 8968 0.255004752 0.255004752 1 0 0 0 0
184	690388 23 8968 8968 0.255004752 0.255004752 1 0 0 0 0
186	690411 23 8968 8968 0.255004752 0.255004752 1 0 0 0 0
188	690434 23 8968 8968 0.255004752 0.255004752 1 0 0 0 0
190	690457 23 8968 8968 0.255004752 0.255004752 1 0 0 0 0
382	690480 37 8968 8968 0.255004752 0.255004752 1 20361.877097455 20361.877097455 20361.877097455 414606038.93187
410	690517 37 8968 8968 0.255004752 0.255004752 1 20361.877097455 20361.877097455 20361.877097455 414606038.93187
438	690554 37 8968 8968 0.255004752 0.255004752 1 20361.877097455 20361.877097455 20361.877097455 414606038.93187
466	690591 37 8968 8968 0.255004752 0.255004752 1 20361.877097455 20361.877097455 20361.877097455 414606038.93187
471	690628 37 8968 8968 0.255004752 0.255004752 1 20361.877097455 20361.877097455 20361.877097455 414606038.93187
473	690665 37 8968 8968 0.255004752 0.255004752 1 20361.877097455 20361.877097455 20361.877097455 414606038.93187
475	690702 37 8968 8968 0.255004752 0.255004752 1 20361.877097455 20361.877097455 20361.877097455 414606038.93187
491	690739 37 8968 8968 0.255004752 0.255004752 1 20361.877097455 20361.877097455 20361.877097455 414606038.93187
493	690776 37 8968 8968 0.255004752 0.255004752 1 20361.877097455 20361.877097455 20361.877097455 414606038.93187
495	690813 37 8968 8968 0.255004752 0.255004752 1 20361.877097455 20361.877097455 20361.877097455 414606038.93187
511	690850 37 8968 8968 0.255004752 0.255004752 1 20361.877097455 20361.877097455 20361.877097455 414606038.93187
513	690887 37 8968 8968 0.255004752 0.255004752 1 20361.877097455 20361.877097455 20361.877097455 414606038.93187
515	690924 37 8968 8968 0.255004752 0.255004752 1 20361.877097455 20361.877097455 20361.877097455 414606038.93187
531	690961 37 8968 8968 0.255004752 0.255004752 1 20361.877097455 20361.877097455 20361.877097455 414606038.93187
533	690998 37 8968 8968 0.255004752 0.255004752 1 20361.877097455 20361.877097455 20361.877097455 414606038.93187
535	691035 37 8968 8968 0.255004752 0.255004752 1 20361.877097455 20361.877097455 20361.877097455 414606038.93187
549	691072 37 8968 8968 0.255004752 0.255004752 1 22688.948765736 22688.948765736 22688.948765736 514788396.09418
551	691109 37 8968 8968 0.255004752 0.255004752 1 22688.948765736 22688.948765736 22688.948765736 514788396.09418
553	691146 37 8968 8968 0.255004752 0.255004752 1 22688.948765736 22688.948765736 22688.948765736 514788396.09418
555	691183 37 8968 8968 0.255004752 0.255004752 1 22688.948765736 22688.948765736 22688.948765736 514788396.09418
635	691220 37 8968 8968 0.255004752 0.255004752 1 193146.94846729 193146.94846729 193146.94846729 37305743702.226
638	691257 37 8968 8968 0.255004752 0.255004752 1 193146.94846729 193146.94846729 193146.94846729 37305743702.226
647	691294 37 8968 8968 0.255004752 0.255004752 1 98900.545901925 98900.545901925 98900.545901925 9781317979.6988
652	691331 37 8968 8968 0.255004752 0.255004752 1 98900.545901925 98900.545901925 98900.545901925 9781317979.6988
654	691368 37 8968 8968 0.255004752 0.255004752 1 98900.545901925 98900.545901925 98900.545901925 9781317979.6988
656	691405 37 8968 8968 0.255004752 0.255004752 1 98900.545901925 98900.545901925 98900.545901925 9781317979.6988
670	691442 37 8968 8968 0.255004752 0.255004752 1 109372.36840919 109372.36840919 109372.36840919 11962314971.435
672	691479 37 8968 8968 0.255004752 0.255004752 1 109372.36840919 109372.36840919 109372.36840919 11962314971.435
711	691516 37 8968 8968 0.255004752 0.255004752 1 70103.034006953 70103.034006953 70103.034006953 4914435376.98
759	691553 37 8968 8968 0.255004752 0.255004752 1 98900.545901925 98900.545901925 98900.545901925 9781317979.6988
761	691590 36 8968 8968 0.255004752 0.255004752 1 40723.75419491 40723.75419491 40723.75419491 1658424155.7275
768	691626 36 8968 8968 0.255004752 0.255004752 1 40723.75419491 40723.75419491 40723.75419491 1658424155.7275
778	691662 37 8968 8968 0.255004752 0.255004752 1 98900.545901925 98900.545901925 98900.545901925 9781317979.6988
783	691699 37 8968 8968 0.255004752 0.255004752 1 98900.545901925 98900.545901925 98900.545901925 9781317979.6988
785	691736 37 8968 8968 0.255004752 0.255004752 1 98900.545901925 98900.545901925 98900.545901925 9781317979.6988
799	691773 37 8968 8968 0.255004752 0.255004752 1 109372.36840919 109372.36840919 109372.36840919 11962314971.435
801	691810 37 8968 8968 0.255004752 0.255004752 1 109372.36840919 109372.36840919 109372.36840919 11962314971.435
840	691847 37 8968 8968 0.255004752 0.255004752 1 126243.63800422 126243.63800422 126243.63800422 15937456136.541
888	691884 37 8968 8968 0.255004752 0.255004752 1 177439.21470639 177439.21470639 177439.21470639 31484674915.622
890	691921 37 8968 8968 0.255004752 0.255004752 1 61085.631292365 61085.631292365 61085.631292365 3731454350.3868
897	691958 37 8968 8968 0.255004752 0.255004752 1 61085.631292365 61085.631292365 61085.631292365 3731454350.3868
907	691995 37 8968 8968 0.255004752 0.255004752 1 177439.21470639 177439.21470639 177439.21470639 31484674915.622
912	692032 37 8968 8968 0.255004752 0.255004752 1 177439.21470639 177439.21470639 177439.21470639 31484674915.622
914	692069 37 8968 8968 0.255004752 0.255004752 1 177439.21470639 177439.21470639 177439.21470639 31484674915.622
928	692106 37 8968 8968 0.255004752 0.255004752 1 196055.78805264 196055.78805264 196055.78805264 38437872028.942
930	692143 37 8968 8968 0.255004752 0.255004752 1 196055.78805264 196055.78805264 196055.78805264 38437872028.942
967	692180 37 8968 8968 0.255004752 0.255004752 1 17453.037512104 17453.037512104 17453.037512104 304608518.39892
969	692217 37 8968 8968 0.255004752 0.255004752 1 17453.037512104 17453.037512104 17453.037512104 304608518.39892
978	692254 37 8968 8968 0.255004752 0.255004752 1 151841.42635531 151841.42635531 151841.42635531 23055818757.615
981	692291 37 8968 8968 0.255004752 0.255004752 1 151841.42635531 151841.42635531 151841.42635531 23055818757.615
990	692328 36 8968 8968 0.255004752 0.255004752 1 78538.66880447 78538.66880447 78538.66880447 6168322497.5782
995	692364 36 8968 8968 0.255004752 0.255004752 1 78538.66880447 78538.66880447 78538.66880447 6168322497.5782
997	692400 36 8968 8968 0.255004752 0.255004752 1 78538.66880447 78538.66880447 78538.66880447 6168322497.5782
999	692436 36 8968 8968 0.255004752 0.255004752 1 78538.66880447 78538.66880447 78538.66880447 6168322497.5782
1013	692472 38 8968 8968 0.255004752 0.255004752 1 86683.419643452 86683.419643452 86683.419643452 7514015241.0828
1015	692510 38 8968 8968 0.255004752 0.255004752 1 86683.419643452 86683.419643452 86683.419643452 7514015241.0828
1054	692548 38 8968 8968 0.255004752 0.255004752 1 56140.603997269 56140.603997269 56140.603997269 3151767417.1782
1102	692586 37 8968 8968 0.255004752 0.255004752 1 78538.66880447 78538.66880447 78538.66880447 6168322497.5782
1104	692623 38 8968 8968 0.255004752 0.255004752 1 20361.877097455 20361.877097455 20361.877097455 414606038.93187
1111	692661 38 8968 8968 0.255004752 0.255004752 1 20361.877097455 20361.877097455 20361.877097455 414606038.93187
1121	692699 37 8968 8968 0.255004752 0.255004752 1 78538.66880447 78538.66880447 78538.66880447 6168322497.5782
1126	692736 37 8968 8968 0.255004752 0.255004752 1 78538.66880447 78538.66880447 78538.66880447 6168322497.5782
1128	692773 37 8968 8968 0.255004752 0.255004752 1 78538.66880447 78538.66880447 78538.66880447 6168322497.5782
1142	692810 38 8968 8968 0.255004752 0.255004752 1 86683.419643452 86683.419643452 86683.419643452 7514015241.0828
1144	692848 38 8968 8968 0.255004752 0.255004752 1 86683.419643452 86683.419643452 86683.419643452 7514015241.0828
1203	692886 38 8968 8968 0.255004752 0.255004752 1 34906.075024209 34906.075024209 34906.075024209 1218434073.5957
1231	692924 38 8968 8968 0.255004752 0.255004752 1 34906.075024209 34906.075024209 34906.075024209 1218434073.5957
1259	692962 38 8968 8968 0.255004752 0.255004752 1 34906.075024209 34906.075024209 34906.075024209 1218434073.5957
1287	693000 38 8968 8968 0.255004752 0.255004752 1 34906.075024209 34906.075024209 34906.075024209 1218434073.5957
1292	693038 38 8968 8968 0.255004752 0.255004752 1 34906.075024209 34906.075024209 34906.075024209 1218434073.5957
1294	693076 38 8968 8968 0.255004752 0.255004752 1 34906.075024209 34906.075024209 34906.075024209 1218434073.5957
1296	693114 38 8968 8968 0.255004752 0.255004752 1 34906.075024209 34906.075024209 34906.075024209 1218434073.5957
1312	693152 38 8968 8968 0.255004752 0.255004752 1 34906.075024209 34906.075024209 34906.075024209 1218434073.5957
1314	693190 38 8968 8968 0.255004752 0.255004752 1 34906.075024209 34906.075024209 34906.075024209 1218434073.5957
1316	693228 38 8968 8968 0.255004752 0.255004752 1 34906.075024209 34906.075024209 34906.075024209 1218434073.5957
1332	693266 38 8968 8968 0.255004752 0.255004752 1 34906.075024209 34906.075024209 34906.075024209 1218434073.5957
1334	693304 38 8968 8968 0.255004752 0.255004752 1 34906.075024209 34906.075024209 34906.075024209 1218434073.5957
1336	693342 38 8968 8968 0.255004752 0.255004752 1 34906.075024209 34906.075024209 34906.075024209 1218434073.5957
1352	693380 38 8968 8968 0.255004752 0.255004752 1 34906.075024209 34906.075024209 34906.075024209 1218434073.5957
1354	693418 38 8968 8968 0.255004752 0.255004752 1 34906.075024209 34906.075024209 34906.075024209 1218434073.5957
1356	693456 38 8968 8968 0.255004752 0.255004752 1 34906.075024209 34906.075024209 34906.075024209 1218434073.5957
1370	693494 37 8968 8968 0.255004752 0.255004752 1 38396.68252663 38396.68252663 38396.68252663 1474305229.0508
1372	693531 37 8968 8968 0.255004752 0.255004752 1 38396.68252663 38396.68252663 38396.68252663 1474305229.0508
1374	693568 37 8968 8968 0.255004752 0.255004752 1 38396.68252663 38396.68252663 38396.68252663 1474305229.0508
1376	693605 37 8968 8968 0.255004752 0.255004752 1 38396.68252663 38396.68252663 38396.68252663 1474305229.0508
1472	693642 38 8968 8968 0.255004752 0.255004752 1 58176.791707015 58176.791707015 58176.791707015 3384539093.3214
1488	693680 38 8968 8968 0.255004752 0.255004752 1 58176.791707015 58176.791707015 58176.791707015 3384539093.3214
1493	693718 38 8968 8968 0.255004752 0.255004752 1 58176.791707015 58176.791707015 58176.791707015 3384539093.3214
1504	693756 38 8968 8968 0.255004752 0.255004752 1 58176.791707015 58176.791707015 58176.791707015 3384539093.3214
1526	693794 38 8968 8968 0.255004752 0.255004752 1 116353.58341403 116353.58341403 116353.58341403 13538156373.285
1531	693832 38 8968 8968 0.255004752 0.255004752 1 116353.58341403 116353.58341403 116353.58341403 13538156373.285
1542	693870 38 8968 8968 0.255004752 0.255004752 1 39269.334402235 39269.334402235 39269.334402235 1542080624.3946
1544	693908 38 8968 8968 0.255004752 0.255004752 1 39269.334402235 39269.334402235 39269.334402235 1542080624.3946
1559	693946 56 8968 8968 0.1 0.255004752 3 0 0 0 0
1560	694002 56 8968 8968 0.1 0.255004752 3 0 0 0 0
1561	694058 56 8968 8968 0.1 0.255004752 3 0 0 0 0
1562	694114 56 8968 8968 0.1 0.255004752 3 0 0 0 0
1563	694170 56 8968 8968 0.1 0.255004752 3 0 0 0 0
1564	694226 56 8968 8968 0.1 0.255004752 3 0 0 0 0
1565	694282 56 8968 8968 0.1 0.255004752 3 0 0 0 0
1566	694338 56 8968 8968 0.1 0.255004752 3 0 0 0 0
1567	694394 56 8968 8968 0.1 0.255004752 3 0 0 0 0
1568	694450 56 8968 8968 0.1 0.255004752 3 0 0 0 0
1569	694506 56 8968 8968 0.1 0.255004752 3 0 0 0 0
1570	694562 56 8968 8968 0.1 0.255004752 3 0 0 0 0
1571	694618 56 8968 8968 0.1 0.255004752 3 0 0 0 0
1572	694674 56 8968 8968 0.1 0.255004752 3 0 0 0 0
1573	694730 56 8968 8968 0.1 0.255004752 3 0 0 0 0
1574	694786 56 8968 8968 0.1 0.255004752 3 0 0 0 0
1575	694842 56 8968 8968 0.1 0.255004752 3 0 0 0 0
1576	694898 56 8968 8968 0.1 0.255004752 3 0 0 0 0
1577	694954 56 8968 8968 0.1 0.255004752 3 0 0 0 0
1578	695010 56 8968 8968 0.1 0.255004752 3 0 0 0 0
1579	695066 56 8968 8968 0.1 0.255004752 3 0 0 0 0
1580	695122 56 8968 8968 0.1 0.255004752 3 0 0 0 0
1581	695178 56 8968 8968 0.1 0.255004752 3 0 0 0 0
1582	695234 56 8968 8968 0.1 0.255004752 3 0 0 0 0
1583	695290 56 8968 8968 0.1 0.255004752 3 0 0 0 0
1584	695346 56 8968 8968 0.1 0.255004752 3 0 0 0 0
1585	695402 56 8968 8968 0.1 0.255004752 3 0 0 0 0
1586	695458 56 8968 8968 0.1 0.255004752 3 0 0 0 0
1587	695514 56 8968 8968 0.1 0.255004752 3 0 0 0 0
1588	695570 56 8968 8968 0.1 0.255004752 3 0 0 0 0
1589	695626 56 8968 8968 0.1 0.255004752 3 0 0 0 0
1590	695682 56 8968 8968 0.1 0.255004752 3 0 0 0 0
1591	695738 56 8968 8968 0.1 0.255004752 3 0 0 0 0
1592	695794 56 8968 8968 0.1 0.255004752 3 0 0 0 0
1593	695850 56 8968 8968 0.1 0.255004752 3 0 0 0 0
1594	695906 56 8968 8968 0.1 0.255004752 3 0 0 0 0
1595	695962 56 8968 8968 0.1 0.255004752 3 0 0 0 0
1596	696018 56 8968 8968 0.1 0.255004752 3 0 0 0 0
1597	696074 56 8968 8968 0.1 0.255004752 3 0 0 0 0
1598	696130 56 8968 8968 0.1 0.255004752 3 0 0 0 0
1599	696186 56 8968 8968 0.1 0.255004752 3 0 0 0 0
1600	696242 56 8968 8968 0.1 0.255004752 3 0 0 0 0
1601	696298 56 8968 8968 0.1 0.255004752 3 0 0 0 0
1602	696354 56 8968 8968 0.1 0.255004752 3 0 0 0 0
1603	696410 56 8968 8968 0.1 0.255004752 3 0 0 0 0
1604	696466 56 8968 8968 0.1 0.255004752 3 0 0 0 0
1605	696522 56 8968 8968 0.1 0.255004752 3 0 0 0 0
1606	696578 56 8968 8968 0.1 0.255004752 3 0 0 0 0
1607	696634 56 8968 8968 0.1 0.255004752 3 0 0 0 0
1608	696690 56 8968 8968 0.1 0.255004752 3 0 0 0 0
1609	696746 56 8968 8968 0.1 0.255004752 3 0 0 0 0
1610	696802 56 8968 8968 0.1 0.255004752 3 0 0 0 0
1611	696858 56 8968 8968 0.1 0.255004752 3 0 0 0 0
1612	696914 56 8968 8968 0.1 0.255004752 3 0 0 0 0
1613	696970 56 8968 8968 0.1 0.255004752 3 0 0 0 0
1614	697026 56 8968 8968 0.1 0.255004752 3 0 0 0 0
1615	697082 56 8968 8968 0.1 0.255004752 3 0 0 0 0
1616	697138 56 8968 8968 0.1 0.255004752 3 0 0 0 0
1617	697194 56 8968 8968 0.1 0.255004752 3 0 0 0 0
1618	697250 56 8968 8968 0.1 0.255004752 3 0 0 0 0
1619	697306 56 8968 8968 0.1 0.255004752 3 0 0 0 0
1620	697362 56 8968 8968 0.1 0.255004752 3 0 0 0 0
1621	697418 56 8968 8968 0.1 0.255004752 3 0 0 0 0
1622	697474 56 8968 8968 0.1 0.255004752 3 0 0 0 0
1623	697530 56 8968 8968 0.1 0.255004752 3 0 0 0 0
1624	697586 56 8968 8968 0.1 0.255004752 3 0 0 0 0
1625	697642 56 8968 8968 0.1 0.255004752 3 0 0 0 0
1626	697698 56 8968 8968 0.1 0.255004752 3 0 0 0 0
1627	697754 56 8968 8968 0.1 0.255004752 3 0 0 0 0
1628	697810 56 8968 8968 0.1 0.255004752 3 0 0 0 0
1629	697866 56 8968 8968 0.1 0.255004752 3 0 0 0 0
1630	697922 56 8968 8968 0.1 0.255004752 3 0 0 0 0
1631	697978 56 8968 8968 0.1 0.255004752 3 0 0 0 0
1632	698034 56 8968 8968 0.1 0.255004752 3 0 0 0 0
1633	698090 56 8968 8968 0.1 0.255004752 3 0 0 0 0
1634	698146 56 8968 8968 0.1 0.255004752 3 0 0 0 0
1635	698202 56 8968 8968 0.1 0.255004752 3 0 0 0 0
1636	698258 56 8968 8968 0.1 0.255004752 3 0 0 0 0
1637	698314 56 8968 8968 0.1 0.255004752 3 0 0 0 0
1638	698370 56 8968 8968 0.1 0.255004752 3 0 0 0 0
1639	698426 56 8968 8968 0.1 0.255004752 3 0 0 0 0
1640	698482 56 8968 8968 0.1 0.255004752 3 0 0 0 0
1641	698538 56 8968 8968 0.1 0.255004752 3 0 0 0 0
1642	698594 56 8968 8968 0.1 0.255004752 3 0 0 0 0
1643	698650 56 8968 8968 0.1 0.255004752 3 0 0 0 0
1644	698706 56 8968 8968 0.1 0.255004752 3 0 0 0 0
1645	698762 56 8968 8968 0.1 0.255004752 3 0 0 0 0
1646	698818 56 8968 8968 0.1 0.255004752 3 0 0 0 0
1647	698874 56 8968 8968 0.1 0.255004752 3 0 0 0 0
1648	698930 56 8968 8968 0.1 0.255004752 3 0 0 0 0
1649	698986 56 8968 8968 0.1 0.255004752 3 0 0 0 0
1650	699042 60 8968 8968 0.1 0.255004752 3 0 79360 79360 6298009600
1651	699102 60 8968 8968 0.1 0.255004752 3 0 79360 79360 6298009600
1652	699162 56 8968 8968 0.1 0.255004752 3 0 0 0 0
1653	699218 56 8968 8968 0.1 0.255004752 3 0 0 0 0
1654	699274 60 8968 8968 0.1 0.255004752 3 0 79360 79360 6298009600
1655	699334 60 8968 8968 0.1 0.255004752 3 0 79360 79360 6298009600
1656	699394 56 8968 8968 0.1 0.255004752 3 0 0 0 0
1657	699450 56 8968 8968 0.1 0.255004752 3 0 0 0 0
1658	699506 56 8968 8968 0.1 0.255004752 3 0 0 0 0
1659	699562 56 8968 8968 0.1 0.255004752 3 0 0 0 0
1660	699618 56 8968 8968 0.1 0.255004752 3 0 0 0 0
1661	699674 56 8968 8968 0.1 0.255004752 3 0 0 0 0
1662	699730 56 8968 8968 0.1 0.255004752 3 0 0 0 0
1663	699786 56 8968 8968 0.1 0.255004752 3 0 0 0 0
1664	699842 56 8968 8968 0.1 0.255004752 3 0 0 0 0
1665	699898 56 8968 8968 0.1 0.255004752 3 0 0 0 0
1666	699954 56 8968 8968 0.1 0.255004752 3 0 0 0 0
1667	700010 56 8968 8968 0.1 0.255004752 3 0 0 0 0
1668	700066 56 8968 8968 0.1 0.255004752 3 0 0 0 0
1669	700122 56 8968 8968 0.1 0.255004752 3 0 0 0 0
1670	700178 56 8968 8968 0.1 0.255004752 3 0 0 0 0
1671	700234 56 8968 8968 0.1 0.255004752 3 0 0 0 0
1672	700290 56 8968 8968 0.1 0.255004752 3 0 0 0 0
1673	700346 56 8968 8968 0.1 0.255004752 3 0 0 0 0
1674	700402 56 8968 8968 0.1 0.255004752 3 0 0 0 0
1675	700458 56 8968 8968 0.1 0.255004752 3 0 0 0 0
1676	700514 56 8968 8968 0.1 0.255004752 3 0 0 0 0
1677	700570 56 8968 8968 0.1 0.255004752 3 0 0 0 0
1678	700626 56 8968 8968 0.1 0.255004752 3 0 0 0 0
1679	700682 56 8968 8968 0.1 0.255004752 3 0 0 0 0
1680	700738 56 8968 8968 0.1 0.255004752 3 0 0 0 0
1681	700794 56 8968 8968 0.1 0.255004752 3 0 0 0 0
1682	700850 56 8968 8968 0.1 0.255004752 3 0 0 0 0
1683	700906 56 8968 8968 0.1 0.255004752 3 0 0 0 0
1684	700962 56 8968 8968 0.1 0.255004752 3 0 0 0 0
1685	701018 56 8968 8968 0.1 0.255004752 3 0 0 0 0
1686	701074 56 8968 8968 0.1 0.255004752 3 0 0 0 0
1687	701130 56 8968 8968 0.1 0.255004752 3 0 0 0 0
1688	701186 56 8968 8968 0.1 0.255004752 3 0 0 0 0
1689	701242 56 8968 8968 0.1 0.255004752 3 0 0 0 0
1690	701298 56 8968 8968 0.1 0.255004752 3 0 0 0 0
1691	701354 56 8968 8968 0.1 0.255004752 3 0 0 0 0
1692	701410 56 8968 8968 0.1 0.255004752 3 0 0 0 0
1693	701466 56 8968 8968 0.1 0.255004752 3 0 0 0 0
1694	701522 56 8968 8968 0.1 0.255004752 3 0 0 0 0
1695	701578 56 8968 8968 0.1 0.255004752 3 0 0 0 0
1696	701634 56 8968 8968 0.1 0.255004752 3 0 0 0 0
1697	701690 56 8968 8968 0.1 0.255004752 3 0 0 0 0
1698	701746 56 8968 8968 0.1 0.255004752 3 0 0 0 0
1699	701802 56 8968 8968 0.1 0.255004752 3 0 0 0 0
1700	701858 56 8968 8968 0.1 0.255004752 3 0 0 0 0
1701	701914 56 8968 8968 0.1 0.255004752 3 0 0 0 0
1702	701970 56 8968 8968 0.1 0.255004752 3 0 0 0 0
1703	702026 56 8968 8968 0.1 0.255004752 3 0 0 0 0
1704	702082 56 8968 8968 0.1 0.255004752 3 0 0 0 0
1705	702138 56 8968 8968 0.1 0.255004752 3 0 0 0 0
1706	702194 56 8968 8968 0.1 0.255004752 3 0 0 0 0
1707	702250 56 8968 8968 0.1 0.255004752 3 0 0 0 0
1708	702306 56 8968 8968 0.1 0.255004752 3 0 0 0 0
1709	702362 56 8968 8968 0.1 0.255004752 3 0 0 0 0
1710	702418 56 8968 8968 0.1 0.255004752 3 0 0 0 0
1711	702474 56 8968 8968 0.1 0.255004752 3 0 0 0 0
1712	702530 56 8968 8968 0.1 0.255004752 3 0 0 0 0
1713	702586 56 8968 8968 0.1 0.255004752 3 0 0 0 0

