                                                                
version 3
run test1-0-20240325-03:54:52-2325
attr configname test1
attr datetime 20240325-03:54:52
attr datetimef 20240325-035452
attr experiment test1
attr inifile omnetpp.ini
attr iterationvars ""
attr iterationvarsd ""
attr iterationvarsf ""
attr measurement ""
attr network TrainTopology
attr processid 2325
attr repetition 0
attr replication #0
attr resultdir results
attr runnumber 0
attr seedset 0
config image-path ../../inet4.5/images:../../simu5G/images
config network TrainTopology
config sim-time-limit 15.0s
config *.gnb*.numX2Apps 1
config *.gnb*.x2App[*].server.localPort "5000 + ancestorIndex(1)"
config *.gnb1.x2App[0].client.connectAddress "\"gnb2%x2ppp0\""
config *.gnb2.x2App[0].client.connectAddress "\"gnb1%x2ppp0\""
config *.server.ipv4.routingTable.routingFile "\"server.mrt\""
config *.*.dstt.DSTT.destAddress "\"server\""
config *.*Ue[0].masterId 0
config *.*Ue[0].nrMacCellId 1
config *.*Ue[0].nrMasterId 1
config *.*Ue[1].masterId 0
config *.*Ue[1].nrMacCellId 1
config *.*Ue[1].nrMasterId 1
config *.*Ue[2].masterId 0
config *.*Ue[2].nrMacCellId 1
config *.*Ue[2].nrMasterId 2
config *.*Ue[3].masterId 0
config *.*Ue[3].nrMacCellId 1
config *.*Ue[3].nrMasterId 2
config *.switch3.macTable.forwardingTable "[{address:\"0A-AA-00-00-00-01\", interface:\"eth2\"}]"
config *.TCUClient[0].numApps 2
config *.TCUClient[1..3].numApps 1
config *.TCUClient*.app[0].typename UdpSink
config *.TCUClient*.app[0].localPort 1001
config *.TCUClient[0].app[1].typename UdpBasicApp
config *.TCUClient[0].app[1].display-name group
config *.TCUClient[0].app[1].sendInterval 0.1s
config *.TCUClient[0].app[1].startTime 0.1s
config *.TCUClient[0].app[1].messageLength 30B
config *.TCUClient[0].app[1].destAddresses "\"server\""
config *.TCUClient[0].app[1].packetName "\"224.0.1.1\""
config *.TCUClient[0].app[1].destPort 1001
config *.TCUClient[0].app[1].localPort 1000
config *.server.numApps 1
config *.server.app[0].typename UdpGroupManagement
config *.server.app[0].localPort 1001
config *.server.app[0].destPort 1001
config *.server.app[0].destAddresses "\"10.0.0.45 10.0.0.49 10.0.0.53 10.0.0.57\""
config *.server.app[0].messageLength 30B
config *.*.hasOutgoingStreams true
config *.*.hasIncomingStreams true
config *.*Client*.bridging.streamIdentifier.identifier.mapping "[{stream: \"besteffort\", packetFilter: expr(udp.destPort == 1000)},\n\t\t\t\t\t\t\t\t\t\t\t\t\t\t\t{stream: \"video\", packetFilter: expr(udp.destPort == 1001)},\n\t\t\t\t\t\t\t\t\t\t\t\t\t\t\t{stream: \"group\"}]"
config *.*Client*.bridging.streamCoder.encoder.mapping "[{stream: \"besteffort\", pcp: 0},\n\t\t\t\t\t\t\t\t\t\t\t\t\t{stream: \"video\", pcp: 4}]"
config *.server.bridging.streamIdentifier.identifier.mapping "[{stream: \"besteffort\", packetFilter: expr(udp.destPort == 1000)},\n\t\t\t\t\t\t\t\t\t\t\t\t\t\t\t{stream: \"video\", packetFilter: expr(udp.destPort == 1001)}]"
config *.server.bridging.streamCoder.encoder.mapping "[{stream: \"besteffort\", pcp: 0},\n\t\t\t\t\t\t\t\t\t\t\t\t\t{stream: \"video\", pcp: 4}]"
config *.switch*.bridging.streamCoder.decoder.mapping "[{pcp: 0, stream: \"besteffort\"},\n                                                 {pcp: 4, stream: \"video\"}]"
config *.switch*.bridging.streamCoder.encoder.mapping "[{stream: \"besteffort\", pcp: 0},\n\t\t\t\t\t\t\t\t\t\t\t\t\t{stream: \"video\", pcp: 4}]"
config *.switch*.hasIngressTrafficFiltering true
config *.switch*.bridging.streamFilter.ingress.typename SimpleIeee8021qFilter
config *.switch*.bridging.streamFilter.ingress.numStreams 2
config *.switch*.bridging.streamFilter.ingress.classifier.mapping "{besteffort: 0, video: 1}"
config *.switch*.bridging.streamFilter.ingress.*[0].display-name besteffort
config *.switch*.bridging.streamFilter.ingress.*[1].display-name video
config *.switch*.bridging.streamFilter.ingress.meter[*].typename EligibilityTimeMeter
config *.switch*.bridging.streamFilter.ingress.meter[*].committedInformationRate 20Mbps
config *.switch*.bridging.streamFilter.ingress.meter[*].committedBurstSize 10kB
config *.switch*.bridging.streamFilter.ingress.filter[*].typename EligibilityTimeFilter
config *.switch*.hasEgressTrafficShaping true
config *.switch*.bridging.directionReverser.reverser.excludeEncapsulationProtocols "[\"ieee8021qctag\"]"
config *.switch*.eth[*].macLayer.queue.numTrafficClasses 2
config *.switch*.eth[*].macLayer.queue.*[0].display-name besteffort
config *.switch*.eth[*].macLayer.queue.*[1].display-name video
config *.switch*.eth[*].macLayer.queue.queue[0].typename EligibilityTimeQueue
config *.switch*.eth[*].macLayer.queue.queue[1].typename EligibilityTimeQueue
config *.switch*.eth[*].macLayer.queue.transmissionSelectionAlgorithm[0].typename Ieee8021qAsynchronousShaper
config *.switch*.eth[*].macLayer.queue.transmissionSelectionAlgorithm[0].idleSlope 42.68Mbps
config *.switch*.eth[*].macLayer.queue.transmissionSelectionAlgorithm[1].typename Ieee8021qAsynchronousShaper
config *.switch*.eth[*].macLayer.queue.transmissionSelectionAlgorithm[1].idleSlope 21.34Mbps

vector 0 TrainTopology.server.eth[0].phyLayer.interFrameGapInserter interpacketGap:vector ETV
attr interpolationmode sample-hold
attr recordingmode vector
attr source "count(interpacketGapStarted) - count(interpacketGapEnded)"
attr title "interpacket gap state"
attr type int
vector 1 TrainTopology.server.eth[0].phyLayer.transmitter transmitting:vector ETV
attr interpolationmode sample-hold
attr recordingmode vector
attr source "count(transmissionStarted) - count(transmissionEnded)"
attr title "transmitting state"
attr type int
vector 2 TrainTopology.server.udp passedUpPk:vector(count) ETV
attr interpolationmode none
attr recordingmode vector(count)
attr source packetSentToUpper
attr title "packets passed up, count"
vector 3 TrainTopology.server.udp droppedPkWrongPort:vector(count) ETV
attr interpolationmode none
attr recordingmode vector(count)
attr source packetDropReasonIsNoPortFound(packetDropped)
attr title "packets dropped (wrong port), count"
vector 4 TrainTopology.server.udp droppedPkBadChecksum:vector(count) ETV
attr interpolationmode none
attr recordingmode vector(count)
attr source packetDropReasonIsIncorrectlyReceived(packetDropped)
attr title "packets dropped (checksum error), count"
vector 5 TrainTopology.switch1.eth[0].phyLayer.interFrameGapInserter interpacketGap:vector ETV
attr interpolationmode sample-hold
attr recordingmode vector
attr source "count(interpacketGapStarted) - count(interpacketGapEnded)"
attr title "interpacket gap state"
attr type int
vector 6 TrainTopology.switch1.eth[0].phyLayer.transmitter transmitting:vector ETV
attr interpolationmode sample-hold
attr recordingmode vector
attr source "count(transmissionStarted) - count(transmissionEnded)"
attr title "transmitting state"
attr type int
vector 7 TrainTopology.switch1.eth[1].phyLayer.interFrameGapInserter interpacketGap:vector ETV
attr interpolationmode sample-hold
attr recordingmode vector
attr source "count(interpacketGapStarted) - count(interpacketGapEnded)"
attr title "interpacket gap state"
attr type int
vector 8 TrainTopology.switch1.eth[1].phyLayer.transmitter transmitting:vector ETV
attr interpolationmode sample-hold
attr recordingmode vector
attr source "count(transmissionStarted) - count(transmissionEnded)"
attr title "transmitting state"
attr type int
vector 9 TrainTopology.switch2.eth[0].phyLayer.interFrameGapInserter interpacketGap:vector ETV
attr interpolationmode sample-hold
attr recordingmode vector
attr source "count(interpacketGapStarted) - count(interpacketGapEnded)"
attr title "interpacket gap state"
attr type int
vector 10 TrainTopology.switch2.eth[0].phyLayer.transmitter transmitting:vector ETV
attr interpolationmode sample-hold
attr recordingmode vector
attr source "count(transmissionStarted) - count(transmissionEnded)"
attr title "transmitting state"
attr type int
vector 11 TrainTopology.switch2.eth[1].phyLayer.interFrameGapInserter interpacketGap:vector ETV
attr interpolationmode sample-hold
attr recordingmode vector
attr source "count(interpacketGapStarted) - count(interpacketGapEnded)"
attr title "interpacket gap state"
attr type int
vector 12 TrainTopology.switch2.eth[1].phyLayer.transmitter transmitting:vector ETV
attr interpolationmode sample-hold
attr recordingmode vector
attr source "count(transmissionStarted) - count(transmissionEnded)"
attr title "transmitting state"
attr type int
vector 13 TrainTopology.switch3.eth[0].phyLayer.interFrameGapInserter interpacketGap:vector ETV
attr interpolationmode sample-hold
attr recordingmode vector
attr source "count(interpacketGapStarted) - count(interpacketGapEnded)"
attr title "interpacket gap state"
attr type int
vector 14 TrainTopology.switch3.eth[0].phyLayer.transmitter transmitting:vector ETV
attr interpolationmode sample-hold
attr recordingmode vector
attr source "count(transmissionStarted) - count(transmissionEnded)"
attr title "transmitting state"
attr type int
vector 15 TrainTopology.switch3.eth[1].phyLayer.interFrameGapInserter interpacketGap:vector ETV
attr interpolationmode sample-hold
attr recordingmode vector
attr source "count(interpacketGapStarted) - count(interpacketGapEnded)"
attr title "interpacket gap state"
attr type int
vector 16 TrainTopology.switch3.eth[1].phyLayer.transmitter transmitting:vector ETV
attr interpolationmode sample-hold
attr recordingmode vector
attr source "count(transmissionStarted) - count(transmissionEnded)"
attr title "transmitting state"
attr type int
vector 17 TrainTopology.switch3.eth[2].phyLayer.interFrameGapInserter interpacketGap:vector ETV
attr interpolationmode sample-hold
attr recordingmode vector
attr source "count(interpacketGapStarted) - count(interpacketGapEnded)"
attr title "interpacket gap state"
attr type int
vector 18 TrainTopology.switch3.eth[2].phyLayer.transmitter transmitting:vector ETV
attr interpolationmode sample-hold
attr recordingmode vector
attr source "count(transmissionStarted) - count(transmissionEnded)"
attr title "transmitting state"
attr type int
vector 19 TrainTopology.upf1.ppp[0].ppp transmissionState:vector ETV
attr interpolationmode sample-hold
attr recordingmode vector
attr source transmissionStateChanged
attr title "tx state"
vector 20 TrainTopology.upf1.udp passedUpPk:vector(count) ETV
attr interpolationmode none
attr recordingmode vector(count)
attr source packetSentToUpper
attr title "packets passed up, count"
vector 21 TrainTopology.upf1.udp droppedPkWrongPort:vector(count) ETV
attr interpolationmode none
attr recordingmode vector(count)
attr source packetDropReasonIsNoPortFound(packetDropped)
attr title "packets dropped (wrong port), count"
vector 22 TrainTopology.upf1.udp droppedPkBadChecksum:vector(count) ETV
attr interpolationmode none
attr recordingmode vector(count)
attr source packetDropReasonIsIncorrectlyReceived(packetDropped)
attr title "packets dropped (checksum error), count"
vector 23 TrainTopology.upf1.ethInterface.phyLayer.interFrameGapInserter interpacketGap:vector ETV
attr interpolationmode sample-hold
attr recordingmode vector
attr source "count(interpacketGapStarted) - count(interpacketGapEnded)"
attr title "interpacket gap state"
attr type int
vector 24 TrainTopology.upf1.ethInterface.phyLayer.transmitter transmitting:vector ETV
attr interpolationmode sample-hold
attr recordingmode vector
attr source "count(transmissionStarted) - count(transmissionEnded)"
attr title "transmitting state"
attr type int
vector 25 TrainTopology.upf2.ppp[0].ppp transmissionState:vector ETV
attr interpolationmode sample-hold
attr recordingmode vector
attr source transmissionStateChanged
attr title "tx state"
vector 26 TrainTopology.upf2.udp passedUpPk:vector(count) ETV
attr interpolationmode none
attr recordingmode vector(count)
attr source packetSentToUpper
attr title "packets passed up, count"
vector 27 TrainTopology.upf2.udp droppedPkWrongPort:vector(count) ETV
attr interpolationmode none
attr recordingmode vector(count)
attr source packetDropReasonIsNoPortFound(packetDropped)
attr title "packets dropped (wrong port), count"
vector 28 TrainTopology.upf2.udp droppedPkBadChecksum:vector(count) ETV
attr interpolationmode none
attr recordingmode vector(count)
attr source packetDropReasonIsIncorrectlyReceived(packetDropped)
attr title "packets dropped (checksum error), count"
vector 29 TrainTopology.upf2.ethInterface.phyLayer.interFrameGapInserter interpacketGap:vector ETV
attr interpolationmode sample-hold
attr recordingmode vector
attr source "count(interpacketGapStarted) - count(interpacketGapEnded)"
attr title "interpacket gap state"
attr type int
vector 30 TrainTopology.upf2.ethInterface.phyLayer.transmitter transmitting:vector ETV
attr interpolationmode sample-hold
attr recordingmode vector
attr source "count(transmissionStarted) - count(transmissionEnded)"
attr title "transmitting state"
attr type int
vector 31 TrainTopology.gnb1.pppIf.ppp transmissionState:vector ETV
attr interpolationmode sample-hold
attr recordingmode vector
attr source transmissionStateChanged
attr title "tx state"
vector 32 TrainTopology.gnb1.x2ppp[0].ppp transmissionState:vector ETV
attr interpolationmode sample-hold
attr recordingmode vector
attr source transmissionStateChanged
attr title "tx state"
vector 33 TrainTopology.gnb1.pppMEHostIf.ppp transmissionState:vector ETV
attr interpolationmode sample-hold
attr recordingmode vector
attr source transmissionStateChanged
attr title "tx state"
vector 34 TrainTopology.gnb1.udp passedUpPk:vector(count) ETV
attr interpolationmode none
attr recordingmode vector(count)
attr source packetSentToUpper
attr title "packets passed up, count"
vector 35 TrainTopology.gnb1.udp droppedPkWrongPort:vector(count) ETV
attr interpolationmode none
attr recordingmode vector(count)
attr source packetDropReasonIsNoPortFound(packetDropped)
attr title "packets dropped (wrong port), count"
vector 36 TrainTopology.gnb1.udp droppedPkBadChecksum:vector(count) ETV
attr interpolationmode none
attr recordingmode vector(count)
attr source packetDropReasonIsIncorrectlyReceived(packetDropped)
attr title "packets dropped (checksum error), count"
vector 37 TrainTopology.gnb2.pppIf.ppp transmissionState:vector ETV
attr interpolationmode sample-hold
attr recordingmode vector
attr source transmissionStateChanged
attr title "tx state"
vector 38 TrainTopology.gnb2.x2ppp[0].ppp transmissionState:vector ETV
attr interpolationmode sample-hold
attr recordingmode vector
attr source transmissionStateChanged
attr title "tx state"
vector 39 TrainTopology.gnb2.pppMEHostIf.ppp transmissionState:vector ETV
attr interpolationmode sample-hold
attr recordingmode vector
attr source transmissionStateChanged
attr title "tx state"
vector 40 TrainTopology.gnb2.udp passedUpPk:vector(count) ETV
attr interpolationmode none
attr recordingmode vector(count)
attr source packetSentToUpper
attr title "packets passed up, count"
vector 41 TrainTopology.gnb2.udp droppedPkWrongPort:vector(count) ETV
attr interpolationmode none
attr recordingmode vector(count)
attr source packetDropReasonIsNoPortFound(packetDropped)
attr title "packets dropped (wrong port), count"
vector 42 TrainTopology.gnb2.udp droppedPkBadChecksum:vector(count) ETV
attr interpolationmode none
attr recordingmode vector(count)
attr source packetDropReasonIsIncorrectlyReceived(packetDropped)
attr title "packets dropped (checksum error), count"
vector 43 TrainTopology.TCUClient[0].eth[0].phyLayer.interFrameGapInserter interpacketGap:vector ETV
attr interpolationmode sample-hold
attr recordingmode vector
attr source "count(interpacketGapStarted) - count(interpacketGapEnded)"
attr title "interpacket gap state"
attr type int
vector 44 TrainTopology.TCUClient[0].eth[0].phyLayer.transmitter transmitting:vector ETV
attr interpolationmode sample-hold
attr recordingmode vector
attr source "count(transmissionStarted) - count(transmissionEnded)"
attr title "transmitting state"
attr type int
vector 45 TrainTopology.TCUClient[0].udp passedUpPk:vector(count) ETV
attr interpolationmode none
attr recordingmode vector(count)
attr source packetSentToUpper
attr title "packets passed up, count"
vector 46 TrainTopology.TCUClient[0].udp droppedPkWrongPort:vector(count) ETV
attr interpolationmode none
attr recordingmode vector(count)
attr source packetDropReasonIsNoPortFound(packetDropped)
attr title "packets dropped (wrong port), count"
vector 47 TrainTopology.TCUClient[0].udp droppedPkBadChecksum:vector(count) ETV
attr interpolationmode none
attr recordingmode vector(count)
attr source packetDropReasonIsIncorrectlyReceived(packetDropped)
attr title "packets dropped (checksum error), count"
vector 48 TrainTopology.TCUClient[1].eth[0].phyLayer.interFrameGapInserter interpacketGap:vector ETV
attr interpolationmode sample-hold
attr recordingmode vector
attr source "count(interpacketGapStarted) - count(interpacketGapEnded)"
attr title "interpacket gap state"
attr type int
vector 49 TrainTopology.TCUClient[1].eth[0].phyLayer.transmitter transmitting:vector ETV
attr interpolationmode sample-hold
attr recordingmode vector
attr source "count(transmissionStarted) - count(transmissionEnded)"
attr title "transmitting state"
attr type int
vector 50 TrainTopology.TCUClient[1].udp passedUpPk:vector(count) ETV
attr interpolationmode none
attr recordingmode vector(count)
attr source packetSentToUpper
attr title "packets passed up, count"
vector 51 TrainTopology.TCUClient[1].udp droppedPkWrongPort:vector(count) ETV
attr interpolationmode none
attr recordingmode vector(count)
attr source packetDropReasonIsNoPortFound(packetDropped)
attr title "packets dropped (wrong port), count"
vector 52 TrainTopology.TCUClient[1].udp droppedPkBadChecksum:vector(count) ETV
attr interpolationmode none
attr recordingmode vector(count)
attr source packetDropReasonIsIncorrectlyReceived(packetDropped)
attr title "packets dropped (checksum error), count"
vector 53 TrainTopology.TCUClient[2].eth[0].phyLayer.interFrameGapInserter interpacketGap:vector ETV
attr interpolationmode sample-hold
attr recordingmode vector
attr source "count(interpacketGapStarted) - count(interpacketGapEnded)"
attr title "interpacket gap state"
attr type int
vector 54 TrainTopology.TCUClient[2].eth[0].phyLayer.transmitter transmitting:vector ETV
attr interpolationmode sample-hold
attr recordingmode vector
attr source "count(transmissionStarted) - count(transmissionEnded)"
attr title "transmitting state"
attr type int
vector 55 TrainTopology.TCUClient[2].udp passedUpPk:vector(count) ETV
attr interpolationmode none
attr recordingmode vector(count)
attr source packetSentToUpper
attr title "packets passed up, count"
vector 56 TrainTopology.TCUClient[2].udp droppedPkWrongPort:vector(count) ETV
attr interpolationmode none
attr recordingmode vector(count)
attr source packetDropReasonIsNoPortFound(packetDropped)
attr title "packets dropped (wrong port), count"
vector 57 TrainTopology.TCUClient[2].udp droppedPkBadChecksum:vector(count) ETV
attr interpolationmode none
attr recordingmode vector(count)
attr source packetDropReasonIsIncorrectlyReceived(packetDropped)
attr title "packets dropped (checksum error), count"
vector 58 TrainTopology.TCUClient[3].eth[0].phyLayer.interFrameGapInserter interpacketGap:vector ETV
attr interpolationmode sample-hold
attr recordingmode vector
attr source "count(interpacketGapStarted) - count(interpacketGapEnded)"
attr title "interpacket gap state"
attr type int
vector 59 TrainTopology.TCUClient[3].eth[0].phyLayer.transmitter transmitting:vector ETV
attr interpolationmode sample-hold
attr recordingmode vector
attr source "count(transmissionStarted) - count(transmissionEnded)"
attr title "transmitting state"
attr type int
vector 60 TrainTopology.TCUClient[3].udp passedUpPk:vector(count) ETV
attr interpolationmode none
attr recordingmode vector(count)
attr source packetSentToUpper
attr title "packets passed up, count"
vector 61 TrainTopology.TCUClient[3].udp droppedPkWrongPort:vector(count) ETV
attr interpolationmode none
attr recordingmode vector(count)
attr source packetDropReasonIsNoPortFound(packetDropped)
attr title "packets dropped (wrong port), count"
vector 62 TrainTopology.TCUClient[3].udp droppedPkBadChecksum:vector(count) ETV
attr interpolationmode none
attr recordingmode vector(count)
attr source packetDropReasonIsIncorrectlyReceived(packetDropped)
attr title "packets dropped (checksum error), count"
vector 63 TrainTopology.TCUUe[0].udp passedUpPk:vector(count) ETV
attr interpolationmode none
attr recordingmode vector(count)
attr source packetSentToUpper
attr title "packets passed up, count"
vector 64 TrainTopology.TCUUe[0].udp droppedPkWrongPort:vector(count) ETV
attr interpolationmode none
attr recordingmode vector(count)
attr source packetDropReasonIsNoPortFound(packetDropped)
attr title "packets dropped (wrong port), count"
vector 65 TrainTopology.TCUUe[0].udp droppedPkBadChecksum:vector(count) ETV
attr interpolationmode none
attr recordingmode vector(count)
attr source packetDropReasonIsIncorrectlyReceived(packetDropped)
attr title "packets dropped (checksum error), count"
vector 66 TrainTopology.TCUUe[0].dstt.phyLayer.interFrameGapInserter interpacketGap:vector ETV
attr interpolationmode sample-hold
attr recordingmode vector
attr source "count(interpacketGapStarted) - count(interpacketGapEnded)"
attr title "interpacket gap state"
attr type int
vector 67 TrainTopology.TCUUe[0].dstt.phyLayer.transmitter transmitting:vector ETV
attr interpolationmode sample-hold
attr recordingmode vector
attr source "count(transmissionStarted) - count(transmissionEnded)"
attr title "transmitting state"
attr type int
vector 68 TrainTopology.TCUUe[1].udp passedUpPk:vector(count) ETV
attr interpolationmode none
attr recordingmode vector(count)
attr source packetSentToUpper
attr title "packets passed up, count"
vector 69 TrainTopology.TCUUe[1].udp droppedPkWrongPort:vector(count) ETV
attr interpolationmode none
attr recordingmode vector(count)
attr source packetDropReasonIsNoPortFound(packetDropped)
attr title "packets dropped (wrong port), count"
vector 70 TrainTopology.TCUUe[1].udp droppedPkBadChecksum:vector(count) ETV
attr interpolationmode none
attr recordingmode vector(count)
attr source packetDropReasonIsIncorrectlyReceived(packetDropped)
attr title "packets dropped (checksum error), count"
vector 71 TrainTopology.TCUUe[1].dstt.phyLayer.interFrameGapInserter interpacketGap:vector ETV
attr interpolationmode sample-hold
attr recordingmode vector
attr source "count(interpacketGapStarted) - count(interpacketGapEnded)"
attr title "interpacket gap state"
attr type int
vector 72 TrainTopology.TCUUe[1].dstt.phyLayer.transmitter transmitting:vector ETV
attr interpolationmode sample-hold
attr recordingmode vector
attr source "count(transmissionStarted) - count(transmissionEnded)"
attr title "transmitting state"
attr type int
vector 73 TrainTopology.TCUUe[2].udp passedUpPk:vector(count) ETV
attr interpolationmode none
attr recordingmode vector(count)
attr source packetSentToUpper
attr title "packets passed up, count"
vector 74 TrainTopology.TCUUe[2].udp droppedPkWrongPort:vector(count) ETV
attr interpolationmode none
attr recordingmode vector(count)
attr source packetDropReasonIsNoPortFound(packetDropped)
attr title "packets dropped (wrong port), count"
vector 75 TrainTopology.TCUUe[2].udp droppedPkBadChecksum:vector(count) ETV
attr interpolationmode none
attr recordingmode vector(count)
attr source packetDropReasonIsIncorrectlyReceived(packetDropped)
attr title "packets dropped (checksum error), count"
vector 76 TrainTopology.TCUUe[2].dstt.phyLayer.interFrameGapInserter interpacketGap:vector ETV
attr interpolationmode sample-hold
attr recordingmode vector
attr source "count(interpacketGapStarted) - count(interpacketGapEnded)"
attr title "interpacket gap state"
attr type int
vector 77 TrainTopology.TCUUe[2].dstt.phyLayer.transmitter transmitting:vector ETV
attr interpolationmode sample-hold
attr recordingmode vector
attr source "count(transmissionStarted) - count(transmissionEnded)"
attr title "transmitting state"
attr type int
vector 78 TrainTopology.TCUUe[3].udp passedUpPk:vector(count) ETV
attr interpolationmode none
attr recordingmode vector(count)
attr source packetSentToUpper
attr title "packets passed up, count"
vector 79 TrainTopology.TCUUe[3].udp droppedPkWrongPort:vector(count) ETV
attr interpolationmode none
attr recordingmode vector(count)
attr source packetDropReasonIsNoPortFound(packetDropped)
attr title "packets dropped (wrong port), count"
vector 80 TrainTopology.TCUUe[3].udp droppedPkBadChecksum:vector(count) ETV
attr interpolationmode none
attr recordingmode vector(count)
attr source packetDropReasonIsIncorrectlyReceived(packetDropped)
attr title "packets dropped (checksum error), count"
vector 81 TrainTopology.TCUUe[3].dstt.phyLayer.interFrameGapInserter interpacketGap:vector ETV
attr interpolationmode sample-hold
attr recordingmode vector
attr source "count(interpacketGapStarted) - count(interpacketGapEnded)"
attr title "interpacket gap state"
attr type int
vector 82 TrainTopology.TCUUe[3].dstt.phyLayer.transmitter transmitting:vector ETV
attr interpolationmode sample-hold
attr recordingmode vector
attr source "count(transmissionStarted) - count(transmissionEnded)"
attr title "transmitting state"
attr type int
vector 83 TrainTopology.BCUClient[0].eth[0].phyLayer.interFrameGapInserter interpacketGap:vector ETV
attr interpolationmode sample-hold
attr recordingmode vector
attr source "count(interpacketGapStarted) - count(interpacketGapEnded)"
attr title "interpacket gap state"
attr type int
vector 84 TrainTopology.BCUClient[0].eth[0].phyLayer.transmitter transmitting:vector ETV
attr interpolationmode sample-hold
attr recordingmode vector
attr source "count(transmissionStarted) - count(transmissionEnded)"
attr title "transmitting state"
attr type int
vector 85 TrainTopology.BCUClient[0].udp passedUpPk:vector(count) ETV
attr interpolationmode none
attr recordingmode vector(count)
attr source packetSentToUpper
attr title "packets passed up, count"
vector 86 TrainTopology.BCUClient[0].udp droppedPkWrongPort:vector(count) ETV
attr interpolationmode none
attr recordingmode vector(count)
attr source packetDropReasonIsNoPortFound(packetDropped)
attr title "packets dropped (wrong port), count"
vector 87 TrainTopology.BCUClient[0].udp droppedPkBadChecksum:vector(count) ETV
attr interpolationmode none
attr recordingmode vector(count)
attr source packetDropReasonIsIncorrectlyReceived(packetDropped)
attr title "packets dropped (checksum error), count"
vector 88 TrainTopology.BCUClient[1].eth[0].phyLayer.interFrameGapInserter interpacketGap:vector ETV
attr interpolationmode sample-hold
attr recordingmode vector
attr source "count(interpacketGapStarted) - count(interpacketGapEnded)"
attr title "interpacket gap state"
attr type int
vector 89 TrainTopology.BCUClient[1].eth[0].phyLayer.transmitter transmitting:vector ETV
attr interpolationmode sample-hold
attr recordingmode vector
attr source "count(transmissionStarted) - count(transmissionEnded)"
attr title "transmitting state"
attr type int
vector 90 TrainTopology.BCUClient[1].udp passedUpPk:vector(count) ETV
attr interpolationmode none
attr recordingmode vector(count)
attr source packetSentToUpper
attr title "packets passed up, count"
vector 91 TrainTopology.BCUClient[1].udp droppedPkWrongPort:vector(count) ETV
attr interpolationmode none
attr recordingmode vector(count)
attr source packetDropReasonIsNoPortFound(packetDropped)
attr title "packets dropped (wrong port), count"
vector 92 TrainTopology.BCUClient[1].udp droppedPkBadChecksum:vector(count) ETV
attr interpolationmode none
attr recordingmode vector(count)
attr source packetDropReasonIsIncorrectlyReceived(packetDropped)
attr title "packets dropped (checksum error), count"
vector 93 TrainTopology.BCUClient[2].eth[0].phyLayer.interFrameGapInserter interpacketGap:vector ETV
attr interpolationmode sample-hold
attr recordingmode vector
attr source "count(interpacketGapStarted) - count(interpacketGapEnded)"
attr title "interpacket gap state"
attr type int
vector 94 TrainTopology.BCUClient[2].eth[0].phyLayer.transmitter transmitting:vector ETV
attr interpolationmode sample-hold
attr recordingmode vector
attr source "count(transmissionStarted) - count(transmissionEnded)"
attr title "transmitting state"
attr type int
vector 95 TrainTopology.BCUClient[2].udp passedUpPk:vector(count) ETV
attr interpolationmode none
attr recordingmode vector(count)
attr source packetSentToUpper
attr title "packets passed up, count"
vector 96 TrainTopology.BCUClient[2].udp droppedPkWrongPort:vector(count) ETV
attr interpolationmode none
attr recordingmode vector(count)
attr source packetDropReasonIsNoPortFound(packetDropped)
attr title "packets dropped (wrong port), count"
vector 97 TrainTopology.BCUClient[2].udp droppedPkBadChecksum:vector(count) ETV
attr interpolationmode none
attr recordingmode vector(count)
attr source packetDropReasonIsIncorrectlyReceived(packetDropped)
attr title "packets dropped (checksum error), count"
vector 98 TrainTopology.BCUClient[3].eth[0].phyLayer.interFrameGapInserter interpacketGap:vector ETV
attr interpolationmode sample-hold
attr recordingmode vector
attr source "count(interpacketGapStarted) - count(interpacketGapEnded)"
attr title "interpacket gap state"
attr type int
vector 99 TrainTopology.BCUClient[3].eth[0].phyLayer.transmitter transmitting:vector ETV
attr interpolationmode sample-hold
attr recordingmode vector
attr source "count(transmissionStarted) - count(transmissionEnded)"
attr title "transmitting state"
attr type int
vector 100 TrainTopology.BCUClient[3].udp passedUpPk:vector(count) ETV
attr interpolationmode none
attr recordingmode vector(count)
attr source packetSentToUpper
attr title "packets passed up, count"
vector 101 TrainTopology.BCUClient[3].udp droppedPkWrongPort:vector(count) ETV
attr interpolationmode none
attr recordingmode vector(count)
attr source packetDropReasonIsNoPortFound(packetDropped)
attr title "packets dropped (wrong port), count"
vector 102 TrainTopology.BCUClient[3].udp droppedPkBadChecksum:vector(count) ETV
attr interpolationmode none
attr recordingmode vector(count)
attr source packetDropReasonIsIncorrectlyReceived(packetDropped)
attr title "packets dropped (checksum error), count"
vector 103 TrainTopology.BCUUe[0].udp passedUpPk:vector(count) ETV
attr interpolationmode none
attr recordingmode vector(count)
attr source packetSentToUpper
attr title "packets passed up, count"
vector 104 TrainTopology.BCUUe[0].udp droppedPkWrongPort:vector(count) ETV
attr interpolationmode none
attr recordingmode vector(count)
attr source packetDropReasonIsNoPortFound(packetDropped)
attr title "packets dropped (wrong port), count"
vector 105 TrainTopology.BCUUe[0].udp droppedPkBadChecksum:vector(count) ETV
attr interpolationmode none
attr recordingmode vector(count)
attr source packetDropReasonIsIncorrectlyReceived(packetDropped)
attr title "packets dropped (checksum error), count"
vector 106 TrainTopology.BCUUe[0].dstt.phyLayer.interFrameGapInserter interpacketGap:vector ETV
attr interpolationmode sample-hold
attr recordingmode vector
attr source "count(interpacketGapStarted) - count(interpacketGapEnded)"
attr title "interpacket gap state"
attr type int
vector 107 TrainTopology.BCUUe[0].dstt.phyLayer.transmitter transmitting:vector ETV
attr interpolationmode sample-hold
attr recordingmode vector
attr source "count(transmissionStarted) - count(transmissionEnded)"
attr title "transmitting state"
attr type int
vector 108 TrainTopology.BCUUe[1].udp passedUpPk:vector(count) ETV
attr interpolationmode none
attr recordingmode vector(count)
attr source packetSentToUpper
attr title "packets passed up, count"
vector 109 TrainTopology.BCUUe[1].udp droppedPkWrongPort:vector(count) ETV
attr interpolationmode none
attr recordingmode vector(count)
attr source packetDropReasonIsNoPortFound(packetDropped)
attr title "packets dropped (wrong port), count"
vector 110 TrainTopology.BCUUe[1].udp droppedPkBadChecksum:vector(count) ETV
attr interpolationmode none
attr recordingmode vector(count)
attr source packetDropReasonIsIncorrectlyReceived(packetDropped)
attr title "packets dropped (checksum error), count"
vector 111 TrainTopology.BCUUe[1].dstt.phyLayer.interFrameGapInserter interpacketGap:vector ETV
attr interpolationmode sample-hold
attr recordingmode vector
attr source "count(interpacketGapStarted) - count(interpacketGapEnded)"
attr title "interpacket gap state"
attr type int
vector 112 TrainTopology.BCUUe[1].dstt.phyLayer.transmitter transmitting:vector ETV
attr interpolationmode sample-hold
attr recordingmode vector
attr source "count(transmissionStarted) - count(transmissionEnded)"
attr title "transmitting state"
attr type int
vector 113 TrainTopology.BCUUe[2].udp passedUpPk:vector(count) ETV
attr interpolationmode none
attr recordingmode vector(count)
attr source packetSentToUpper
attr title "packets passed up, count"
vector 114 TrainTopology.BCUUe[2].udp droppedPkWrongPort:vector(count) ETV
attr interpolationmode none
attr recordingmode vector(count)
attr source packetDropReasonIsNoPortFound(packetDropped)
attr title "packets dropped (wrong port), count"
vector 115 TrainTopology.BCUUe[2].udp droppedPkBadChecksum:vector(count) ETV
attr interpolationmode none
attr recordingmode vector(count)
attr source packetDropReasonIsIncorrectlyReceived(packetDropped)
attr title "packets dropped (checksum error), count"
vector 116 TrainTopology.BCUUe[2].dstt.phyLayer.interFrameGapInserter interpacketGap:vector ETV
attr interpolationmode sample-hold
attr recordingmode vector
attr source "count(interpacketGapStarted) - count(interpacketGapEnded)"
attr title "interpacket gap state"
attr type int
vector 117 TrainTopology.BCUUe[2].dstt.phyLayer.transmitter transmitting:vector ETV
attr interpolationmode sample-hold
attr recordingmode vector
attr source "count(transmissionStarted) - count(transmissionEnded)"
attr title "transmitting state"
attr type int
vector 118 TrainTopology.BCUUe[3].udp passedUpPk:vector(count) ETV
attr interpolationmode none
attr recordingmode vector(count)
attr source packetSentToUpper
attr title "packets passed up, count"
vector 119 TrainTopology.BCUUe[3].udp droppedPkWrongPort:vector(count) ETV
attr interpolationmode none
attr recordingmode vector(count)
attr source packetDropReasonIsNoPortFound(packetDropped)
attr title "packets dropped (wrong port), count"
vector 120 TrainTopology.BCUUe[3].udp droppedPkBadChecksum:vector(count) ETV
attr interpolationmode none
attr recordingmode vector(count)
attr source packetDropReasonIsIncorrectlyReceived(packetDropped)
attr title "packets dropped (checksum error), count"
vector 121 TrainTopology.BCUUe[3].dstt.phyLayer.interFrameGapInserter interpacketGap:vector ETV
attr interpolationmode sample-hold
attr recordingmode vector
attr source "count(interpacketGapStarted) - count(interpacketGapEnded)"
attr title "interpacket gap state"
attr type int
vector 122 TrainTopology.BCUUe[3].dstt.phyLayer.transmitter transmitting:vector ETV
attr interpolationmode sample-hold
attr recordingmode vector
attr source "count(transmissionStarted) - count(transmissionEnded)"
attr title "transmitting state"
attr type int
vector 123 TrainTopology.TCUUe[0].cellularNic.phy servingCell:vector ETV
attr recordingmode vector
attr source servingCell
attr title "ID of the serving eNodeB for the UE"
attr unit ""
vector 124 TrainTopology.TCUUe[0].cellularNic.nrPhy servingCell:vector ETV
attr recordingmode vector
attr source servingCell
attr title "ID of the serving eNodeB for the UE"
attr unit ""
vector 125 TrainTopology.TCUUe[1].cellularNic.phy servingCell:vector ETV
attr recordingmode vector
attr source servingCell
attr title "ID of the serving eNodeB for the UE"
attr unit ""
vector 126 TrainTopology.TCUUe[1].cellularNic.nrPhy servingCell:vector ETV
attr recordingmode vector
attr source servingCell
attr title "ID of the serving eNodeB for the UE"
attr unit ""
vector 127 TrainTopology.TCUUe[2].cellularNic.phy servingCell:vector ETV
attr recordingmode vector
attr source servingCell
attr title "ID of the serving eNodeB for the UE"
attr unit ""
vector 128 TrainTopology.TCUUe[2].cellularNic.nrPhy servingCell:vector ETV
attr recordingmode vector
attr source servingCell
attr title "ID of the serving eNodeB for the UE"
attr unit ""
vector 129 TrainTopology.TCUUe[3].cellularNic.phy servingCell:vector ETV
attr recordingmode vector
attr source servingCell
attr title "ID of the serving eNodeB for the UE"
attr unit ""
vector 130 TrainTopology.TCUUe[3].cellularNic.nrPhy servingCell:vector ETV
attr recordingmode vector
attr source servingCell
attr title "ID of the serving eNodeB for the UE"
attr unit ""
vector 131 TrainTopology.BCUUe[0].cellularNic.phy servingCell:vector ETV
attr recordingmode vector
attr source servingCell
attr title "ID of the serving eNodeB for the UE"
attr unit ""
vector 132 TrainTopology.BCUUe[0].cellularNic.nrPhy servingCell:vector ETV
attr recordingmode vector
attr source servingCell
attr title "ID of the serving eNodeB for the UE"
attr unit ""
vector 133 TrainTopology.BCUUe[1].cellularNic.phy servingCell:vector ETV
attr recordingmode vector
attr source servingCell
attr title "ID of the serving eNodeB for the UE"
attr unit ""
vector 134 TrainTopology.BCUUe[1].cellularNic.nrPhy servingCell:vector ETV
attr recordingmode vector
attr source servingCell
attr title "ID of the serving eNodeB for the UE"
attr unit ""
vector 135 TrainTopology.BCUUe[2].cellularNic.phy servingCell:vector ETV
attr recordingmode vector
attr source servingCell
attr title "ID of the serving eNodeB for the UE"
attr unit ""
vector 136 TrainTopology.BCUUe[2].cellularNic.nrPhy servingCell:vector ETV
attr recordingmode vector
attr source servingCell
attr title "ID of the serving eNodeB for the UE"
attr unit ""
vector 137 TrainTopology.BCUUe[3].cellularNic.phy servingCell:vector ETV
attr recordingmode vector
attr source servingCell
attr title "ID of the serving eNodeB for the UE"
attr unit ""
vector 138 TrainTopology.BCUUe[3].cellularNic.nrPhy servingCell:vector ETV
attr recordingmode vector
attr source servingCell
attr title "ID of the serving eNodeB for the UE"
attr unit ""
vector 139 TrainTopology.switch1.bridging.streamFilter.ingress.meter[0] numTokens:vector ETV
attr interpolationmode linear
attr moduledisplaypath TrainTopology.switch1.bridging.streamFilter.ingress.besteffort
attr recordingmode vector
attr source tokensChanged
attr title "number of tokens"
attr unit tk
vector 140 TrainTopology.switch1.bridging.streamFilter.ingress.meter[1] numTokens:vector ETV
attr interpolationmode linear
attr moduledisplaypath TrainTopology.switch1.bridging.streamFilter.ingress.video
attr recordingmode vector
attr source tokensChanged
attr title "number of tokens"
attr unit tk
vector 141 TrainTopology.switch1.eth[0].macLayer.queue.transmissionSelectionAlgorithm[0] gateState:vector ETV
attr enum CLOSED,OPEN
attr interpolationmode sample-hold
attr moduledisplaypath TrainTopology.switch1.eth[0].macLayer.queue.besteffort
attr recordingmode vector
attr source gateStateChanged
attr title "gate state"
attr type enum
vector 142 TrainTopology.switch1.eth[0].macLayer.queue.transmissionSelectionAlgorithm[0] remainingEligibilityTime:vector ETV
attr interpolationmode linear
attr moduledisplaypath TrainTopology.switch1.eth[0].macLayer.queue.besteffort
attr recordingmode vector
attr source remainingEligibilityTimeChanged
attr title "remaining eligibility time"
attr unit s
vector 143 TrainTopology.switch1.eth[0].macLayer.queue.transmissionSelectionAlgorithm[1] gateState:vector ETV
attr enum CLOSED,OPEN
attr interpolationmode sample-hold
attr moduledisplaypath TrainTopology.switch1.eth[0].macLayer.queue.video
attr recordingmode vector
attr source gateStateChanged
attr title "gate state"
attr type enum
vector 144 TrainTopology.switch1.eth[0].macLayer.queue.transmissionSelectionAlgorithm[1] remainingEligibilityTime:vector ETV
attr interpolationmode linear
attr moduledisplaypath TrainTopology.switch1.eth[0].macLayer.queue.video
attr recordingmode vector
attr source remainingEligibilityTimeChanged
attr title "remaining eligibility time"
attr unit s
vector 145 TrainTopology.switch1.eth[1].macLayer.queue.transmissionSelectionAlgorithm[0] gateState:vector ETV
attr enum CLOSED,OPEN
attr interpolationmode sample-hold
attr moduledisplaypath TrainTopology.switch1.eth[1].macLayer.queue.besteffort
attr recordingmode vector
attr source gateStateChanged
attr title "gate state"
attr type enum
vector 146 TrainTopology.switch1.eth[1].macLayer.queue.transmissionSelectionAlgorithm[0] remainingEligibilityTime:vector ETV
attr interpolationmode linear
attr moduledisplaypath TrainTopology.switch1.eth[1].macLayer.queue.besteffort
attr recordingmode vector
attr source remainingEligibilityTimeChanged
attr title "remaining eligibility time"
attr unit s
vector 147 TrainTopology.switch1.eth[1].macLayer.queue.transmissionSelectionAlgorithm[1] gateState:vector ETV
attr enum CLOSED,OPEN
attr interpolationmode sample-hold
attr moduledisplaypath TrainTopology.switch1.eth[1].macLayer.queue.video
attr recordingmode vector
attr source gateStateChanged
attr title "gate state"
attr type enum
vector 148 TrainTopology.switch1.eth[1].macLayer.queue.transmissionSelectionAlgorithm[1] remainingEligibilityTime:vector ETV
attr interpolationmode linear
attr moduledisplaypath TrainTopology.switch1.eth[1].macLayer.queue.video
attr recordingmode vector
attr source remainingEligibilityTimeChanged
attr title "remaining eligibility time"
attr unit s
vector 149 TrainTopology.switch2.bridging.streamFilter.ingress.meter[0] numTokens:vector ETV
attr interpolationmode linear
attr moduledisplaypath TrainTopology.switch2.bridging.streamFilter.ingress.besteffort
attr recordingmode vector
attr source tokensChanged
attr title "number of tokens"
attr unit tk
vector 150 TrainTopology.switch2.bridging.streamFilter.ingress.meter[1] numTokens:vector ETV
attr interpolationmode linear
attr moduledisplaypath TrainTopology.switch2.bridging.streamFilter.ingress.video
attr recordingmode vector
attr source tokensChanged
attr title "number of tokens"
attr unit tk
vector 151 TrainTopology.switch2.eth[0].macLayer.queue.transmissionSelectionAlgorithm[0] gateState:vector ETV
attr enum CLOSED,OPEN
attr interpolationmode sample-hold
attr moduledisplaypath TrainTopology.switch2.eth[0].macLayer.queue.besteffort
attr recordingmode vector
attr source gateStateChanged
attr title "gate state"
attr type enum
vector 152 TrainTopology.switch2.eth[0].macLayer.queue.transmissionSelectionAlgorithm[0] remainingEligibilityTime:vector ETV
attr interpolationmode linear
attr moduledisplaypath TrainTopology.switch2.eth[0].macLayer.queue.besteffort
attr recordingmode vector
attr source remainingEligibilityTimeChanged
attr title "remaining eligibility time"
attr unit s
vector 153 TrainTopology.switch2.eth[0].macLayer.queue.transmissionSelectionAlgorithm[1] gateState:vector ETV
attr enum CLOSED,OPEN
attr interpolationmode sample-hold
attr moduledisplaypath TrainTopology.switch2.eth[0].macLayer.queue.video
attr recordingmode vector
attr source gateStateChanged
attr title "gate state"
attr type enum
vector 154 TrainTopology.switch2.eth[0].macLayer.queue.transmissionSelectionAlgorithm[1] remainingEligibilityTime:vector ETV
attr interpolationmode linear
attr moduledisplaypath TrainTopology.switch2.eth[0].macLayer.queue.video
attr recordingmode vector
attr source remainingEligibilityTimeChanged
attr title "remaining eligibility time"
attr unit s
vector 155 TrainTopology.switch2.eth[1].macLayer.queue.transmissionSelectionAlgorithm[0] gateState:vector ETV
attr enum CLOSED,OPEN
attr interpolationmode sample-hold
attr moduledisplaypath TrainTopology.switch2.eth[1].macLayer.queue.besteffort
attr recordingmode vector
attr source gateStateChanged
attr title "gate state"
attr type enum
vector 156 TrainTopology.switch2.eth[1].macLayer.queue.transmissionSelectionAlgorithm[0] remainingEligibilityTime:vector ETV
attr interpolationmode linear
attr moduledisplaypath TrainTopology.switch2.eth[1].macLayer.queue.besteffort
attr recordingmode vector
attr source remainingEligibilityTimeChanged
attr title "remaining eligibility time"
attr unit s
vector 157 TrainTopology.switch2.eth[1].macLayer.queue.transmissionSelectionAlgorithm[1] gateState:vector ETV
attr enum CLOSED,OPEN
attr interpolationmode sample-hold
attr moduledisplaypath TrainTopology.switch2.eth[1].macLayer.queue.video
attr recordingmode vector
attr source gateStateChanged
attr title "gate state"
attr type enum
vector 158 TrainTopology.switch2.eth[1].macLayer.queue.transmissionSelectionAlgorithm[1] remainingEligibilityTime:vector ETV
attr interpolationmode linear
attr moduledisplaypath TrainTopology.switch2.eth[1].macLayer.queue.video
attr recordingmode vector
attr source remainingEligibilityTimeChanged
attr title "remaining eligibility time"
attr unit s
vector 159 TrainTopology.switch3.bridging.streamFilter.ingress.meter[0] numTokens:vector ETV
attr interpolationmode linear
attr moduledisplaypath TrainTopology.switch3.bridging.streamFilter.ingress.besteffort
attr recordingmode vector
attr source tokensChanged
attr title "number of tokens"
attr unit tk
vector 160 TrainTopology.switch3.bridging.streamFilter.ingress.meter[1] numTokens:vector ETV
attr interpolationmode linear
attr moduledisplaypath TrainTopology.switch3.bridging.streamFilter.ingress.video
attr recordingmode vector
attr source tokensChanged
attr title "number of tokens"
attr unit tk
vector 161 TrainTopology.switch3.eth[0].macLayer.queue.transmissionSelectionAlgorithm[0] gateState:vector ETV
attr enum CLOSED,OPEN
attr interpolationmode sample-hold
attr moduledisplaypath TrainTopology.switch3.eth[0].macLayer.queue.besteffort
attr recordingmode vector
attr source gateStateChanged
attr title "gate state"
attr type enum
vector 162 TrainTopology.switch3.eth[0].macLayer.queue.transmissionSelectionAlgorithm[0] remainingEligibilityTime:vector ETV
attr interpolationmode linear
attr moduledisplaypath TrainTopology.switch3.eth[0].macLayer.queue.besteffort
attr recordingmode vector
attr source remainingEligibilityTimeChanged
attr title "remaining eligibility time"
attr unit s
vector 163 TrainTopology.switch3.eth[0].macLayer.queue.transmissionSelectionAlgorithm[1] gateState:vector ETV
attr enum CLOSED,OPEN
attr interpolationmode sample-hold
attr moduledisplaypath TrainTopology.switch3.eth[0].macLayer.queue.video
attr recordingmode vector
attr source gateStateChanged
attr title "gate state"
attr type enum
vector 164 TrainTopology.switch3.eth[0].macLayer.queue.transmissionSelectionAlgorithm[1] remainingEligibilityTime:vector ETV
attr interpolationmode linear
attr moduledisplaypath TrainTopology.switch3.eth[0].macLayer.queue.video
attr recordingmode vector
attr source remainingEligibilityTimeChanged
attr title "remaining eligibility time"
attr unit s
vector 165 TrainTopology.switch3.eth[1].macLayer.queue.transmissionSelectionAlgorithm[0] gateState:vector ETV
attr enum CLOSED,OPEN
attr interpolationmode sample-hold
attr moduledisplaypath TrainTopology.switch3.eth[1].macLayer.queue.besteffort
attr recordingmode vector
attr source gateStateChanged
attr title "gate state"
attr type enum
vector 166 TrainTopology.switch3.eth[1].macLayer.queue.transmissionSelectionAlgorithm[0] remainingEligibilityTime:vector ETV
attr interpolationmode linear
attr moduledisplaypath TrainTopology.switch3.eth[1].macLayer.queue.besteffort
attr recordingmode vector
attr source remainingEligibilityTimeChanged
attr title "remaining eligibility time"
attr unit s
vector 167 TrainTopology.switch3.eth[1].macLayer.queue.transmissionSelectionAlgorithm[1] gateState:vector ETV
attr enum CLOSED,OPEN
attr interpolationmode sample-hold
attr moduledisplaypath TrainTopology.switch3.eth[1].macLayer.queue.video
attr recordingmode vector
attr source gateStateChanged
attr title "gate state"
attr type enum
vector 168 TrainTopology.switch3.eth[1].macLayer.queue.transmissionSelectionAlgorithm[1] remainingEligibilityTime:vector ETV
attr interpolationmode linear
attr moduledisplaypath TrainTopology.switch3.eth[1].macLayer.queue.video
attr recordingmode vector
attr source remainingEligibilityTimeChanged
attr title "remaining eligibility time"
attr unit s
vector 169 TrainTopology.switch3.eth[2].macLayer.queue.transmissionSelectionAlgorithm[0] gateState:vector ETV
attr enum CLOSED,OPEN
attr interpolationmode sample-hold
attr moduledisplaypath TrainTopology.switch3.eth[2].macLayer.queue.besteffort
attr recordingmode vector
attr source gateStateChanged
attr title "gate state"
attr type enum
vector 170 TrainTopology.switch3.eth[2].macLayer.queue.transmissionSelectionAlgorithm[0] remainingEligibilityTime:vector ETV
attr interpolationmode linear
attr moduledisplaypath TrainTopology.switch3.eth[2].macLayer.queue.besteffort
attr recordingmode vector
attr source remainingEligibilityTimeChanged
attr title "remaining eligibility time"
attr unit s
vector 171 TrainTopology.switch3.eth[2].macLayer.queue.transmissionSelectionAlgorithm[1] gateState:vector ETV
attr enum CLOSED,OPEN
attr interpolationmode sample-hold
attr moduledisplaypath TrainTopology.switch3.eth[2].macLayer.queue.video
attr recordingmode vector
attr source gateStateChanged
attr title "gate state"
attr type enum
vector 172 TrainTopology.switch3.eth[2].macLayer.queue.transmissionSelectionAlgorithm[1] remainingEligibilityTime:vector ETV
attr interpolationmode linear
attr moduledisplaypath TrainTopology.switch3.eth[2].macLayer.queue.video
attr recordingmode vector
attr source remainingEligibilityTimeChanged
attr title "remaining eligibility time"
attr unit s
vector 173 TrainTopology.switch1.bridging.streamFilter.ingress.gate[0] gateState:vector ETV
attr enum CLOSED,OPEN
attr interpolationmode sample-hold
attr moduledisplaypath TrainTopology.switch1.bridging.streamFilter.ingress.besteffort
attr recordingmode vector
attr source gateStateChanged
attr title "gate state"
attr type enum
vector 174 TrainTopology.switch1.bridging.streamFilter.ingress.gate[1] gateState:vector ETV
attr enum CLOSED,OPEN
attr interpolationmode sample-hold
attr moduledisplaypath TrainTopology.switch1.bridging.streamFilter.ingress.video
attr recordingmode vector
attr source gateStateChanged
attr title "gate state"
attr type enum
vector 175 TrainTopology.switch1.eth[0].macLayer.queue.transmissionGate[0] gateState:vector ETV
attr enum CLOSED,OPEN
attr interpolationmode sample-hold
attr moduledisplaypath TrainTopology.switch1.eth[0].macLayer.queue.besteffort
attr recordingmode vector
attr source gateStateChanged
attr title "gate state"
attr type enum
vector 176 TrainTopology.switch1.eth[0].macLayer.queue.transmissionGate[0] guardBandState:vector ETV
attr enum ON,OFF
attr interpolationmode sample-hold
attr moduledisplaypath TrainTopology.switch1.eth[0].macLayer.queue.besteffort
attr recordingmode vector
attr source guardBandStateChanged
attr title "guard band state"
attr type enum
vector 177 TrainTopology.switch1.eth[0].macLayer.queue.transmissionGate[1] gateState:vector ETV
attr enum CLOSED,OPEN
attr interpolationmode sample-hold
attr moduledisplaypath TrainTopology.switch1.eth[0].macLayer.queue.video
attr recordingmode vector
attr source gateStateChanged
attr title "gate state"
attr type enum
vector 178 TrainTopology.switch1.eth[0].macLayer.queue.transmissionGate[1] guardBandState:vector ETV
attr enum ON,OFF
attr interpolationmode sample-hold
attr moduledisplaypath TrainTopology.switch1.eth[0].macLayer.queue.video
attr recordingmode vector
attr source guardBandStateChanged
attr title "guard band state"
attr type enum
vector 179 TrainTopology.switch1.eth[1].macLayer.queue.transmissionGate[0] gateState:vector ETV
attr enum CLOSED,OPEN
attr interpolationmode sample-hold
attr moduledisplaypath TrainTopology.switch1.eth[1].macLayer.queue.besteffort
attr recordingmode vector
attr source gateStateChanged
attr title "gate state"
attr type enum
vector 180 TrainTopology.switch1.eth[1].macLayer.queue.transmissionGate[0] guardBandState:vector ETV
attr enum ON,OFF
attr interpolationmode sample-hold
attr moduledisplaypath TrainTopology.switch1.eth[1].macLayer.queue.besteffort
attr recordingmode vector
attr source guardBandStateChanged
attr title "guard band state"
attr type enum
vector 181 TrainTopology.switch1.eth[1].macLayer.queue.transmissionGate[1] gateState:vector ETV
attr enum CLOSED,OPEN
attr interpolationmode sample-hold
attr moduledisplaypath TrainTopology.switch1.eth[1].macLayer.queue.video
attr recordingmode vector
attr source gateStateChanged
attr title "gate state"
attr type enum
vector 182 TrainTopology.switch1.eth[1].macLayer.queue.transmissionGate[1] guardBandState:vector ETV
attr enum ON,OFF
attr interpolationmode sample-hold
attr moduledisplaypath TrainTopology.switch1.eth[1].macLayer.queue.video
attr recordingmode vector
attr source guardBandStateChanged
attr title "guard band state"
attr type enum
vector 183 TrainTopology.switch2.bridging.streamFilter.ingress.gate[0] gateState:vector ETV
attr enum CLOSED,OPEN
attr interpolationmode sample-hold
attr moduledisplaypath TrainTopology.switch2.bridging.streamFilter.ingress.besteffort
attr recordingmode vector
attr source gateStateChanged
attr title "gate state"
attr type enum
vector 184 TrainTopology.switch2.bridging.streamFilter.ingress.gate[1] gateState:vector ETV
attr enum CLOSED,OPEN
attr interpolationmode sample-hold
attr moduledisplaypath TrainTopology.switch2.bridging.streamFilter.ingress.video
attr recordingmode vector
attr source gateStateChanged
attr title "gate state"
attr type enum
vector 185 TrainTopology.switch2.eth[0].macLayer.queue.transmissionGate[0] gateState:vector ETV
attr enum CLOSED,OPEN
attr interpolationmode sample-hold
attr moduledisplaypath TrainTopology.switch2.eth[0].macLayer.queue.besteffort
attr recordingmode vector
attr source gateStateChanged
attr title "gate state"
attr type enum
vector 186 TrainTopology.switch2.eth[0].macLayer.queue.transmissionGate[0] guardBandState:vector ETV
attr enum ON,OFF
attr interpolationmode sample-hold
attr moduledisplaypath TrainTopology.switch2.eth[0].macLayer.queue.besteffort
attr recordingmode vector
attr source guardBandStateChanged
attr title "guard band state"
attr type enum
vector 187 TrainTopology.switch2.eth[0].macLayer.queue.transmissionGate[1] gateState:vector ETV
attr enum CLOSED,OPEN
attr interpolationmode sample-hold
attr moduledisplaypath TrainTopology.switch2.eth[0].macLayer.queue.video
attr recordingmode vector
attr source gateStateChanged
attr title "gate state"
attr type enum
vector 188 TrainTopology.switch2.eth[0].macLayer.queue.transmissionGate[1] guardBandState:vector ETV
attr enum ON,OFF
attr interpolationmode sample-hold
attr moduledisplaypath TrainTopology.switch2.eth[0].macLayer.queue.video
attr recordingmode vector
attr source guardBandStateChanged
attr title "guard band state"
attr type enum
vector 189 TrainTopology.switch2.eth[1].macLayer.queue.transmissionGate[0] gateState:vector ETV
attr enum CLOSED,OPEN
attr interpolationmode sample-hold
attr moduledisplaypath TrainTopology.switch2.eth[1].macLayer.queue.besteffort
attr recordingmode vector
attr source gateStateChanged
attr title "gate state"
attr type enum
vector 190 TrainTopology.switch2.eth[1].macLayer.queue.transmissionGate[0] guardBandState:vector ETV
attr enum ON,OFF
attr interpolationmode sample-hold
attr moduledisplaypath TrainTopology.switch2.eth[1].macLayer.queue.besteffort
attr recordingmode vector
attr source guardBandStateChanged
attr title "guard band state"
attr type enum
vector 191 TrainTopology.switch2.eth[1].macLayer.queue.transmissionGate[1] gateState:vector ETV
attr enum CLOSED,OPEN
attr interpolationmode sample-hold
attr moduledisplaypath TrainTopology.switch2.eth[1].macLayer.queue.video
attr recordingmode vector
attr source gateStateChanged
attr title "gate state"
attr type enum
vector 192 TrainTopology.switch2.eth[1].macLayer.queue.transmissionGate[1] guardBandState:vector ETV
attr enum ON,OFF
attr interpolationmode sample-hold
attr moduledisplaypath TrainTopology.switch2.eth[1].macLayer.queue.video
attr recordingmode vector
attr source guardBandStateChanged
attr title "guard band state"
attr type enum
vector 193 TrainTopology.switch3.bridging.streamFilter.ingress.gate[0] gateState:vector ETV
attr enum CLOSED,OPEN
attr interpolationmode sample-hold
attr moduledisplaypath TrainTopology.switch3.bridging.streamFilter.ingress.besteffort
attr recordingmode vector
attr source gateStateChanged
attr title "gate state"
attr type enum
vector 194 TrainTopology.switch3.bridging.streamFilter.ingress.gate[1] gateState:vector ETV
attr enum CLOSED,OPEN
attr interpolationmode sample-hold
attr moduledisplaypath TrainTopology.switch3.bridging.streamFilter.ingress.video
attr recordingmode vector
attr source gateStateChanged
attr title "gate state"
attr type enum
vector 195 TrainTopology.switch3.eth[0].macLayer.queue.transmissionGate[0] gateState:vector ETV
attr enum CLOSED,OPEN
attr interpolationmode sample-hold
attr moduledisplaypath TrainTopology.switch3.eth[0].macLayer.queue.besteffort
attr recordingmode vector
attr source gateStateChanged
attr title "gate state"
attr type enum
vector 196 TrainTopology.switch3.eth[0].macLayer.queue.transmissionGate[0] guardBandState:vector ETV
attr enum ON,OFF
attr interpolationmode sample-hold
attr moduledisplaypath TrainTopology.switch3.eth[0].macLayer.queue.besteffort
attr recordingmode vector
attr source guardBandStateChanged
attr title "guard band state"
attr type enum
vector 197 TrainTopology.switch3.eth[0].macLayer.queue.transmissionGate[1] gateState:vector ETV
attr enum CLOSED,OPEN
attr interpolationmode sample-hold
attr moduledisplaypath TrainTopology.switch3.eth[0].macLayer.queue.video
attr recordingmode vector
attr source gateStateChanged
attr title "gate state"
attr type enum
vector 198 TrainTopology.switch3.eth[0].macLayer.queue.transmissionGate[1] guardBandState:vector ETV
attr enum ON,OFF
attr interpolationmode sample-hold
attr moduledisplaypath TrainTopology.switch3.eth[0].macLayer.queue.video
attr recordingmode vector
attr source guardBandStateChanged
attr title "guard band state"
attr type enum
vector 199 TrainTopology.switch3.eth[1].macLayer.queue.transmissionGate[0] gateState:vector ETV
attr enum CLOSED,OPEN
attr interpolationmode sample-hold
attr moduledisplaypath TrainTopology.switch3.eth[1].macLayer.queue.besteffort
attr recordingmode vector
attr source gateStateChanged
attr title "gate state"
attr type enum
vector 200 TrainTopology.switch3.eth[1].macLayer.queue.transmissionGate[0] guardBandState:vector ETV
attr enum ON,OFF
attr interpolationmode sample-hold
attr moduledisplaypath TrainTopology.switch3.eth[1].macLayer.queue.besteffort
attr recordingmode vector
attr source guardBandStateChanged
attr title "guard band state"
attr type enum
vector 201 TrainTopology.switch3.eth[1].macLayer.queue.transmissionGate[1] gateState:vector ETV
attr enum CLOSED,OPEN
attr interpolationmode sample-hold
attr moduledisplaypath TrainTopology.switch3.eth[1].macLayer.queue.video
attr recordingmode vector
attr source gateStateChanged
attr title "gate state"
attr type enum
vector 202 TrainTopology.switch3.eth[1].macLayer.queue.transmissionGate[1] guardBandState:vector ETV
attr enum ON,OFF
attr interpolationmode sample-hold
attr moduledisplaypath TrainTopology.switch3.eth[1].macLayer.queue.video
attr recordingmode vector
attr source guardBandStateChanged
attr title "guard band state"
attr type enum
vector 203 TrainTopology.switch3.eth[2].macLayer.queue.transmissionGate[0] gateState:vector ETV
attr enum CLOSED,OPEN
attr interpolationmode sample-hold
attr moduledisplaypath TrainTopology.switch3.eth[2].macLayer.queue.besteffort
attr recordingmode vector
attr source gateStateChanged
attr title "gate state"
attr type enum
vector 204 TrainTopology.switch3.eth[2].macLayer.queue.transmissionGate[0] guardBandState:vector ETV
attr enum ON,OFF
attr interpolationmode sample-hold
attr moduledisplaypath TrainTopology.switch3.eth[2].macLayer.queue.besteffort
attr recordingmode vector
attr source guardBandStateChanged
attr title "guard band state"
attr type enum
vector 205 TrainTopology.switch3.eth[2].macLayer.queue.transmissionGate[1] gateState:vector ETV
attr enum CLOSED,OPEN
attr interpolationmode sample-hold
attr moduledisplaypath TrainTopology.switch3.eth[2].macLayer.queue.video
attr recordingmode vector
attr source gateStateChanged
attr title "gate state"
attr type enum
vector 206 TrainTopology.switch3.eth[2].macLayer.queue.transmissionGate[1] guardBandState:vector ETV
attr enum ON,OFF
attr interpolationmode sample-hold
attr moduledisplaypath TrainTopology.switch3.eth[2].macLayer.queue.video
attr recordingmode vector
attr source guardBandStateChanged
attr title "guard band state"
attr type enum
vector 207 TrainTopology.gnb1.sctp "Throughput of Association 42" ETV
vector 208 TrainTopology.gnb2.sctp "Throughput of Association 43" ETV
vector 209 TrainTopology.gnb1.sctp "Throughput of Association 6" ETV
vector 210 TrainTopology.gnb1.sctp "Fast Recovery State 6:10.0.0.34" ETV
vector 211 TrainTopology.gnb2.sctp "Throughput of Association 10" ETV
vector 212 TrainTopology.gnb2.sctp "Fast Recovery State 10:10.0.0.33" ETV
vector 213 TrainTopology.gnb1.x2ppp[0].queue incomingPacketLengths:vector ETV
attr interpolationmode none
attr recordingmode vector
attr source packetLength(packetPushStarted)
attr title "incoming packet lengths"
attr unit b
vector 214 TrainTopology.gnb1.x2ppp[0].queue queueingTime:vector ETV
attr interpolationmode none
attr recordingmode vector
attr source queueingTime(packetPulled)
attr title "queueing times"
attr unit s
vector 215 TrainTopology.gnb1.x2ppp[0].queue outgoingPacketLengths:vector ETV
attr interpolationmode none
attr recordingmode vector
attr source packetLength(packetPulled)
attr title "outgoing packet lengths"
attr unit b
vector 216 TrainTopology.gnb1.x2ppp[0].ppp rcvdPkFromHl:vector(packetBytes) ETV
attr interpolationmode none
attr recordingmode vector(packetBytes)
attr source packetReceivedFromUpper
attr title "packets received from higher layer, packetBytes"
vector 217 TrainTopology.gnb1.x2ppp[0].ppp txPk:vector(packetBytes) ETV
attr interpolationmode none
attr recordingmode vector(packetBytes)
attr source packetSentToLower
attr title "packets transmitted, packetBytes"
vector 218 TrainTopology.gnb1.x2ppp[0].queue queueLength:vector ETV
attr autoWarmupFilter false
attr interpolationmode sample-hold
attr recordingmode vector
attr source "warmup(atomic(constant0(packetPushEnded) + count(packetPushStarted) - count(packetPulled) - count(packetRemoved) - count(packetDropped)))"
attr title "queue length"
attr unit pk
vector 219 TrainTopology.gnb1.x2ppp[0].queue queueBitLength:vector ETV
attr autoWarmupFilter false
attr interpolationmode sample-hold
attr recordingmode vector
attr source "warmup(atomic(constant0(packetPushEnded) + sum(packetLength(packetPushStarted)) - sum(packetLength(packetPulled)) - sum(packetLength(packetRemoved)) - sum(packetLength(packetDropped))))"
attr title "queue bit length"
attr unit b
vector 220 TrainTopology.gnb2.x2ppp[0].queue incomingPacketLengths:vector ETV
attr interpolationmode none
attr recordingmode vector
attr source packetLength(packetPushStarted)
attr title "incoming packet lengths"
attr unit b
vector 221 TrainTopology.gnb2.x2ppp[0].queue queueingTime:vector ETV
attr interpolationmode none
attr recordingmode vector
attr source queueingTime(packetPulled)
attr title "queueing times"
attr unit s
vector 222 TrainTopology.gnb2.x2ppp[0].queue outgoingPacketLengths:vector ETV
attr interpolationmode none
attr recordingmode vector
attr source packetLength(packetPulled)
attr title "outgoing packet lengths"
attr unit b
vector 223 TrainTopology.gnb2.x2ppp[0].ppp rcvdPkFromHl:vector(packetBytes) ETV
attr interpolationmode none
attr recordingmode vector(packetBytes)
attr source packetReceivedFromUpper
attr title "packets received from higher layer, packetBytes"
vector 224 TrainTopology.gnb2.x2ppp[0].ppp txPk:vector(packetBytes) ETV
attr interpolationmode none
attr recordingmode vector(packetBytes)
attr source packetSentToLower
attr title "packets transmitted, packetBytes"
vector 225 TrainTopology.gnb2.x2ppp[0].queue queueLength:vector ETV
attr autoWarmupFilter false
attr interpolationmode sample-hold
attr recordingmode vector
attr source "warmup(atomic(constant0(packetPushEnded) + count(packetPushStarted) - count(packetPulled) - count(packetRemoved) - count(packetDropped)))"
attr title "queue length"
attr unit pk
vector 226 TrainTopology.gnb2.x2ppp[0].queue queueBitLength:vector ETV
attr autoWarmupFilter false
attr interpolationmode sample-hold
attr recordingmode vector
attr source "warmup(atomic(constant0(packetPushEnded) + sum(packetLength(packetPushStarted)) - sum(packetLength(packetPulled)) - sum(packetLength(packetRemoved)) - sum(packetLength(packetDropped))))"
attr title "queue bit length"
attr unit b
vector 227 TrainTopology.gnb2.x2ppp[0].ppp rxPkOk:vector(packetBytes) ETV
attr interpolationmode none
attr recordingmode vector(packetBytes)
attr source rxPkOk
attr title "packets received OK, packetBytes"
vector 228 TrainTopology.gnb2.x2ppp[0].ppp passedUpPk:vector(packetBytes) ETV
attr interpolationmode none
attr recordingmode vector(packetBytes)
attr source packetSentToUpper
attr title "packets passed to higher layer, packetBytes"
vector 229 TrainTopology.gnb1.x2ppp[0].ppp rxPkOk:vector(packetBytes) ETV
attr interpolationmode none
attr recordingmode vector(packetBytes)
attr source rxPkOk
attr title "packets received OK, packetBytes"
vector 230 TrainTopology.gnb1.x2ppp[0].ppp passedUpPk:vector(packetBytes) ETV
attr interpolationmode none
attr recordingmode vector(packetBytes)
attr source packetSentToUpper
attr title "packets passed to higher layer, packetBytes"
vector 231 TrainTopology.gnb2.sctp "Throughput of Association 43" ETV
vector 232 TrainTopology.gnb2.sctp "Peer Rwnd 43" ETV
vector 233 TrainTopology.gnb2.sctp "Fast Recovery State 44:10.0.0.17" ETV
vector 234 TrainTopology.gnb2.sctp "Fast Recovery State 44:10.0.0.10" ETV
vector 235 TrainTopology.gnb2.sctp "Fast Recovery State 44:10.0.0.33" ETV
vector 236 TrainTopology.gnb2.sctp "Fast Recovery State 44:10.0.0.37" ETV
vector 237 TrainTopology.gnb1.sctp "Throughput of Association 42" ETV
vector 238 TrainTopology.gnb1.sctp "Peer Rwnd 42" ETV
vector 239 TrainTopology.gnb1.sctp "Fast Recovery State 45:10.0.0.18" ETV
vector 240 TrainTopology.gnb1.sctp "Fast Recovery State 45:10.0.0.14" ETV
vector 241 TrainTopology.gnb1.sctp "Fast Recovery State 45:10.0.0.34" ETV
vector 242 TrainTopology.gnb1.sctp "Fast Recovery State 45:10.0.0.41" ETV
vector 243 TrainTopology.gnb1.sctp "Peer Rwnd 6" ETV
vector 244 TrainTopology.gnb1.sctp "Fast Recovery State 6:10.0.0.18" ETV
vector 245 TrainTopology.gnb1.sctp "Fast Recovery State 6:10.0.0.14" ETV
vector 246 TrainTopology.gnb1.sctp "Fast Recovery State 6:10.0.0.41" ETV
vector 247 TrainTopology.gnb2.sctp "Peer Rwnd 10" ETV
vector 248 TrainTopology.gnb2.sctp "Fast Recovery State 10:10.0.0.17" ETV
vector 249 TrainTopology.gnb2.sctp "Fast Recovery State 10:10.0.0.10" ETV
vector 250 TrainTopology.gnb2.sctp "Fast Recovery State 10:10.0.0.37" ETV
vector 251 TrainTopology.gnb2.sctp "Slow Start Threshold 44:10.0.0.10" ETV
vector 252 TrainTopology.gnb2.sctp "Congestion Window 44:10.0.0.10" ETV
vector 253 TrainTopology.gnb2.sctp "Bandwidth 44:10.0.0.10" ETV
vector 254 TrainTopology.gnb2.sctp "HB Sent 44:10.0.0.10" ETV
vector 255 TrainTopology.gnb2.sctp "RTO 44:10.0.0.10" ETV
vector 256 TrainTopology.gnb2.sctp "Slow Start Threshold 44:10.0.0.17" ETV
vector 257 TrainTopology.gnb2.sctp "Congestion Window 44:10.0.0.17" ETV
vector 258 TrainTopology.gnb2.sctp "Bandwidth 44:10.0.0.17" ETV
vector 259 TrainTopology.gnb2.sctp "HB Sent 44:10.0.0.17" ETV
vector 260 TrainTopology.gnb2.sctp "RTO 44:10.0.0.17" ETV
vector 261 TrainTopology.gnb2.sctp "Slow Start Threshold 44:10.0.0.33" ETV
vector 262 TrainTopology.gnb2.sctp "Congestion Window 44:10.0.0.33" ETV
vector 263 TrainTopology.gnb2.sctp "Bandwidth 44:10.0.0.33" ETV
vector 264 TrainTopology.gnb2.sctp "RTO 44:10.0.0.33" ETV
vector 265 TrainTopology.gnb2.sctp "Slow Start Threshold 44:10.0.0.37" ETV
vector 266 TrainTopology.gnb2.sctp "Congestion Window 44:10.0.0.37" ETV
vector 267 TrainTopology.gnb2.sctp "Bandwidth 44:10.0.0.37" ETV
vector 268 TrainTopology.gnb2.sctp "HB Sent 44:10.0.0.37" ETV
vector 269 TrainTopology.gnb2.sctp "RTO 44:10.0.0.37" ETV
vector 270 TrainTopology.gnb1.sctp "Slow Start Threshold 45:10.0.0.14" ETV
vector 271 TrainTopology.gnb1.sctp "Congestion Window 45:10.0.0.14" ETV
vector 272 TrainTopology.gnb1.sctp "Bandwidth 45:10.0.0.14" ETV
vector 273 TrainTopology.gnb1.sctp "HB Sent 45:10.0.0.14" ETV
vector 274 TrainTopology.gnb1.sctp "RTO 45:10.0.0.14" ETV
vector 275 TrainTopology.gnb1.sctp "Slow Start Threshold 45:10.0.0.18" ETV
vector 276 TrainTopology.gnb1.sctp "Congestion Window 45:10.0.0.18" ETV
vector 277 TrainTopology.gnb1.sctp "Bandwidth 45:10.0.0.18" ETV
vector 278 TrainTopology.gnb1.sctp "HB Sent 45:10.0.0.18" ETV
vector 279 TrainTopology.gnb1.sctp "RTO 45:10.0.0.18" ETV
vector 280 TrainTopology.gnb1.sctp "Slow Start Threshold 45:10.0.0.34" ETV
vector 281 TrainTopology.gnb1.sctp "Congestion Window 45:10.0.0.34" ETV
vector 282 TrainTopology.gnb1.sctp "Bandwidth 45:10.0.0.34" ETV
vector 283 TrainTopology.gnb1.sctp "RTO 45:10.0.0.34" ETV
vector 284 TrainTopology.gnb1.sctp "Slow Start Threshold 45:10.0.0.41" ETV
vector 285 TrainTopology.gnb1.sctp "Congestion Window 45:10.0.0.41" ETV
vector 286 TrainTopology.gnb1.sctp "Bandwidth 45:10.0.0.41" ETV
vector 287 TrainTopology.gnb1.sctp "HB Sent 45:10.0.0.41" ETV
vector 288 TrainTopology.gnb1.sctp "RTO 45:10.0.0.41" ETV
vector 289 TrainTopology.gnb1.sctp "HB ACK Sent 6:10.0.0.34" ETV
vector 290 TrainTopology.gnb1.sctp "HB Received 6:10.0.0.34" ETV
vector 291 TrainTopology.gnb2.sctp "HB ACK Sent 10:10.0.0.33" ETV
vector 292 TrainTopology.gnb2.sctp "HB Received 10:10.0.0.33" ETV
vector 293 TrainTopology.gnb1.sctp "Slow Start Threshold 6:10.0.0.14" ETV
vector 294 TrainTopology.gnb1.sctp "Congestion Window 6:10.0.0.14" ETV
vector 295 TrainTopology.gnb1.sctp "Bandwidth 6:10.0.0.14" ETV
vector 296 TrainTopology.gnb1.sctp "HB Sent 6:10.0.0.14" ETV
vector 297 TrainTopology.gnb1.sctp "RTO 6:10.0.0.14" ETV
vector 298 TrainTopology.gnb1.sctp "Slow Start Threshold 6:10.0.0.18" ETV
vector 299 TrainTopology.gnb1.sctp "Congestion Window 6:10.0.0.18" ETV
vector 300 TrainTopology.gnb1.sctp "Bandwidth 6:10.0.0.18" ETV
vector 301 TrainTopology.gnb1.sctp "HB Sent 6:10.0.0.18" ETV
vector 302 TrainTopology.gnb1.sctp "RTO 6:10.0.0.18" ETV
vector 303 TrainTopology.gnb1.sctp "Slow Start Threshold 6:10.0.0.34" ETV
vector 304 TrainTopology.gnb1.sctp "Congestion Window 6:10.0.0.34" ETV
vector 305 TrainTopology.gnb1.sctp "Bandwidth 6:10.0.0.34" ETV
vector 306 TrainTopology.gnb1.sctp "RTO 6:10.0.0.34" ETV
vector 307 TrainTopology.gnb1.sctp "Slow Start Threshold 6:10.0.0.41" ETV
vector 308 TrainTopology.gnb1.sctp "Congestion Window 6:10.0.0.41" ETV
vector 309 TrainTopology.gnb1.sctp "Bandwidth 6:10.0.0.41" ETV
vector 310 TrainTopology.gnb1.sctp "HB Sent 6:10.0.0.41" ETV
vector 311 TrainTopology.gnb1.sctp "RTO 6:10.0.0.41" ETV
vector 312 TrainTopology.gnb2.sctp "Slow Start Threshold 10:10.0.0.10" ETV
vector 313 TrainTopology.gnb2.sctp "Congestion Window 10:10.0.0.10" ETV
vector 314 TrainTopology.gnb2.sctp "Bandwidth 10:10.0.0.10" ETV
vector 315 TrainTopology.gnb2.sctp "HB Sent 10:10.0.0.10" ETV
vector 316 TrainTopology.gnb2.sctp "RTO 10:10.0.0.10" ETV
vector 317 TrainTopology.gnb2.sctp "Slow Start Threshold 10:10.0.0.17" ETV
vector 318 TrainTopology.gnb2.sctp "Congestion Window 10:10.0.0.17" ETV
vector 319 TrainTopology.gnb2.sctp "Bandwidth 10:10.0.0.17" ETV
vector 320 TrainTopology.gnb2.sctp "HB Sent 10:10.0.0.17" ETV
vector 321 TrainTopology.gnb2.sctp "RTO 10:10.0.0.17" ETV
vector 322 TrainTopology.gnb2.sctp "Slow Start Threshold 10:10.0.0.33" ETV
vector 323 TrainTopology.gnb2.sctp "Congestion Window 10:10.0.0.33" ETV
vector 324 TrainTopology.gnb2.sctp "Bandwidth 10:10.0.0.33" ETV
vector 325 TrainTopology.gnb2.sctp "RTO 10:10.0.0.33" ETV
vector 326 TrainTopology.gnb2.sctp "Slow Start Threshold 10:10.0.0.37" ETV
vector 327 TrainTopology.gnb2.sctp "Congestion Window 10:10.0.0.37" ETV
vector 328 TrainTopology.gnb2.sctp "Bandwidth 10:10.0.0.37" ETV
vector 329 TrainTopology.gnb2.sctp "HB Sent 10:10.0.0.37" ETV
vector 330 TrainTopology.gnb2.sctp "RTO 10:10.0.0.37" ETV
vector 331 TrainTopology.gnb1.sctp "HB ACK Received 45:10.0.0.34" ETV
vector 332 TrainTopology.gnb1.sctp "RTT 45:10.0.0.34" ETV
vector 333 TrainTopology.gnb2.sctp "HB ACK Received 44:10.0.0.33" ETV
vector 334 TrainTopology.gnb2.sctp "RTT 44:10.0.0.33" ETV
vector 335 TrainTopology.gnb1.sctp "HB ACK Sent 45:10.0.0.34" ETV
vector 336 TrainTopology.gnb1.sctp "HB Received 45:10.0.0.34" ETV
vector 337 TrainTopology.gnb2.sctp "HB ACK Sent 44:10.0.0.33" ETV
vector 338 TrainTopology.gnb2.sctp "HB Received 44:10.0.0.33" ETV
vector 339 TrainTopology.gnb1.sctp "HB ACK Received 6:10.0.0.34" ETV
vector 340 TrainTopology.gnb1.sctp "RTT 6:10.0.0.34" ETV
vector 341 TrainTopology.gnb2.sctp "HB ACK Received 10:10.0.0.33" ETV
vector 342 TrainTopology.gnb2.sctp "RTT 10:10.0.0.33" ETV
vector 343 TrainTopology.gnb1.cellularNic.mac avgServedBlocksUl:vector ETV
attr recordingmode vector
attr source avgServedBlocksUl
attr title "Avg Served Blocks Ul"
attr unit blocks
vector 344 TrainTopology.gnb1.cellularNic.mac avgServedBlocksDl:vector ETV
attr recordingmode vector
attr source avgServedBlocksDl
attr title "Avg Served Blocks Dl"
attr unit blocks
vector 345 TrainTopology.gnb2.cellularNic.mac avgServedBlocksUl:vector ETV
attr recordingmode vector
attr source avgServedBlocksUl
attr title "Avg Served Blocks Ul"
attr unit blocks
vector 346 TrainTopology.gnb2.cellularNic.mac avgServedBlocksDl:vector ETV
attr recordingmode vector
attr source avgServedBlocksDl
attr title "Avg Served Blocks Dl"
attr unit blocks
vector 347 TrainTopology.TCUUe[0].cellularNic.nrChannelModel[0] measuredSinrUl:vector ETV
attr recordingmode vector
attr source measuredSinrUl
attr title "SINR measured at feedback computation, UL"
attr unit dB
vector 348 TrainTopology.TCUUe[0].cellularNic.nrChannelModel[0] measuredSinrDl:vector ETV
attr recordingmode vector
attr source measuredSinrDl
attr title "SINR measured at feedback computation, DL"
attr unit dB
vector 349 TrainTopology.gnb1.cellularNic.mac receivedPacketFromLowerLayer:vector(packetBytes) ETV
attr interpolationmode none
attr recordingmode vector(packetBytes)
attr source receivedPacketFromLowerLayer
vector 350 TrainTopology.TCUUe[1].cellularNic.nrChannelModel[0] measuredSinrUl:vector ETV
attr recordingmode vector
attr source measuredSinrUl
attr title "SINR measured at feedback computation, UL"
attr unit dB
vector 351 TrainTopology.TCUUe[1].cellularNic.nrChannelModel[0] measuredSinrDl:vector ETV
attr recordingmode vector
attr source measuredSinrDl
attr title "SINR measured at feedback computation, DL"
attr unit dB
vector 352 TrainTopology.TCUUe[2].cellularNic.nrChannelModel[0] measuredSinrUl:vector ETV
attr recordingmode vector
attr source measuredSinrUl
attr title "SINR measured at feedback computation, UL"
attr unit dB
vector 353 TrainTopology.TCUUe[2].cellularNic.nrChannelModel[0] measuredSinrDl:vector ETV
attr recordingmode vector
attr source measuredSinrDl
attr title "SINR measured at feedback computation, DL"
attr unit dB
vector 354 TrainTopology.gnb2.cellularNic.mac receivedPacketFromLowerLayer:vector(packetBytes) ETV
attr interpolationmode none
attr recordingmode vector(packetBytes)
attr source receivedPacketFromLowerLayer
vector 355 TrainTopology.TCUUe[3].cellularNic.nrChannelModel[0] measuredSinrUl:vector ETV
attr recordingmode vector
attr source measuredSinrUl
attr title "SINR measured at feedback computation, UL"
attr unit dB
vector 356 TrainTopology.TCUUe[3].cellularNic.nrChannelModel[0] measuredSinrDl:vector ETV
attr recordingmode vector
attr source measuredSinrDl
attr title "SINR measured at feedback computation, DL"
attr unit dB
vector 357 TrainTopology.BCUUe[0].cellularNic.nrChannelModel[0] measuredSinrUl:vector ETV
attr recordingmode vector
attr source measuredSinrUl
attr title "SINR measured at feedback computation, UL"
attr unit dB
vector 358 TrainTopology.BCUUe[0].cellularNic.nrChannelModel[0] measuredSinrDl:vector ETV
attr recordingmode vector
attr source measuredSinrDl
attr title "SINR measured at feedback computation, DL"
attr unit dB
vector 359 TrainTopology.BCUUe[1].cellularNic.nrChannelModel[0] measuredSinrUl:vector ETV
attr recordingmode vector
attr source measuredSinrUl
attr title "SINR measured at feedback computation, UL"
attr unit dB
vector 360 TrainTopology.BCUUe[1].cellularNic.nrChannelModel[0] measuredSinrDl:vector ETV
attr recordingmode vector
attr source measuredSinrDl
attr title "SINR measured at feedback computation, DL"
attr unit dB
vector 361 TrainTopology.BCUUe[2].cellularNic.nrChannelModel[0] measuredSinrUl:vector ETV
attr recordingmode vector
attr source measuredSinrUl
attr title "SINR measured at feedback computation, UL"
attr unit dB
vector 362 TrainTopology.BCUUe[2].cellularNic.nrChannelModel[0] measuredSinrDl:vector ETV
attr recordingmode vector
attr source measuredSinrDl
attr title "SINR measured at feedback computation, DL"
attr unit dB
vector 363 TrainTopology.BCUUe[3].cellularNic.nrChannelModel[0] measuredSinrUl:vector ETV
attr recordingmode vector
attr source measuredSinrUl
attr title "SINR measured at feedback computation, UL"
attr unit dB
vector 364 TrainTopology.BCUUe[3].cellularNic.nrChannelModel[0] measuredSinrDl:vector ETV
attr recordingmode vector
attr source measuredSinrDl
attr title "SINR measured at feedback computation, DL"
attr unit dB
vector 365 TrainTopology.TCUClient[0].app[1] packetSent:vector(packetBytes) ETV
attr interpolationmode none
attr moduledisplaypath TrainTopology.TCUClient[0].group
attr recordingmode vector(packetBytes)
attr source packetSent
attr title "packets sent, packetBytes"
vector 366 TrainTopology.TCUClient[0].udp packetSent:vector(packetBytes) ETV
attr interpolationmode none
attr recordingmode vector(packetBytes)
attr source packetSent
attr title "packets sent, packetBytes"
vector 367 TrainTopology.TCUClient[0].bridging.streamIdentifier.identifier incomingPacketLengths:vector ETV
attr interpolationmode none
attr recordingmode vector
attr source "packetLength(merge(packetPushedIn, packetPulledIn))"
attr title "incoming packet lengths"
attr unit b
vector 368 TrainTopology.TCUClient[0].bridging.streamIdentifier.identifier incomingDataRate:vector ETV
attr interpolationmode linear
attr recordingmode vector
attr source "throughput(merge(packetPushedIn, packetPulledIn))"
attr title "incoming data rate"
attr unit bps
vector 369 TrainTopology.TCUClient[0].bridging.streamIdentifier.identifier outgoingPacketLengths:vector ETV
attr interpolationmode none
attr recordingmode vector
attr source "packetLength(merge(packetPushedOut, packetPulledOut))"
attr title "outgoing packet lengths"
attr unit b
vector 370 TrainTopology.TCUClient[0].bridging.streamIdentifier.identifier outgoingDataRate:vector ETV
attr interpolationmode linear
attr recordingmode vector
attr source "throughput(merge(packetPushedOut, packetPulledOut))"
attr title "outgoing data rate"
attr unit bps
vector 371 TrainTopology.TCUClient[0].bridging.streamCoder.encoder incomingPacketLengths:vector ETV
attr interpolationmode none
attr recordingmode vector
attr source "packetLength(merge(packetPushedIn, packetPulledIn))"
attr title "incoming packet lengths"
attr unit b
vector 372 TrainTopology.TCUClient[0].bridging.streamCoder.encoder incomingDataRate:vector ETV
attr interpolationmode linear
attr recordingmode vector
attr source "throughput(merge(packetPushedIn, packetPulledIn))"
attr title "incoming data rate"
attr unit bps
vector 373 TrainTopology.TCUClient[0].bridging.streamCoder.encoder outgoingPacketLengths:vector ETV
attr interpolationmode none
[...]
1021	5040504 1661 3744 223859 0.1 7.8 78 0 18560 1429120 26524467200
1022	5042165 8276 3744 223937 0.12900546 7.83300786 312 464 464 144768 67172352
1023	5050441 1661 3744 223859 0.1 7.8 78 0 18560 1429120 26524467200
1024	5052102 8276 3744 223937 0.12900546 7.83300786 312 464 464 144768 67172352
1025	5060378 1661 3744 223859 0.1 7.8 78 0 18560 1429120 26524467200
1026	5062039 8276 3744 223937 0.12900546 7.83300786 312 464 464 144768 67172352
1027	5070315 1661 3744 223859 0.1 7.8 78 0 18560 1429120 26524467200
1028	5071976 8276 3744 223937 0.12900546 7.83300786 312 464 464 144768 67172352
1029	5080252 1661 3744 223859 0.1 7.8 78 0 18560 1429120 26524467200
1030	5081913 8276 3744 223937 0.12900546 7.83300786 312 464 464 144768 67172352
1031	5090189 1661 3744 223859 0.1 7.8 78 0 18560 1429120 26524467200
1032	5091850 8276 3744 223937 0.12900546 7.83300786 312 464 464 144768 67172352
1033	5100126 1661 3744 223859 0.1 7.8 78 0 18560 1429120 26524467200
1034	5101787 8276 3744 223937 0.12900546 7.83300786 312 464 464 144768 67172352
1035	5110063 1661 3744 223859 0.1 7.8 78 0 18560 1429120 26524467200
1036	5111724 8276 3744 223937 0.12900546 7.83300786 312 464 464 144768 67172352
1037	5120000 1661 3744 223859 0.1 7.8 78 0 18560 1429120 26524467200
1038	5121661 8276 3744 223937 0.12900546 7.83300786 312 464 464 144768 67172352
1039	5129937 1661 3744 223859 0.1 7.8 78 0 18560 1429120 26524467200
1040	5131598 8276 3744 223937 0.12900546 7.83300786 312 464 464 144768 67172352
1041	5139874 1661 3744 223859 0.1 7.8 78 0 18560 1429120 26524467200
1042	5141535 8276 3744 223937 0.12900546 7.83300786 312 464 464 144768 67172352
1043	5149811 1661 3744 223859 0.1 7.8 78 0 18560 1429120 26524467200
1044	5151472 8276 3744 223937 0.12900546 7.83300786 312 464 464 144768 67172352
1045	5159748 1661 3744 223859 0.1 7.8 78 0 18560 1429120 26524467200
1046	5161409 8276 3744 223937 0.12900546 7.83300786 312 464 464 144768 67172352
1047	5169685 1661 3744 223859 0.1 7.8 78 0 18560 1429120 26524467200
1048	5171346 8276 3744 223937 0.12900546 7.83300786 312 464 464 144768 67172352
1049	5179622 1661 3744 223859 0.1 7.8 78 0 18560 1429120 26524467200
1050	5181283 8276 3744 223937 0.12900546 7.83300786 312 464 464 144768 67172352
1051	5189559 1661 3744 223859 0.1 7.8 78 0 18560 1429120 26524467200
1052	5191220 8276 3744 223937 0.12900546 7.83300786 312 464 464 144768 67172352
1053	5199496 1661 3744 223859 0.1 7.8 78 0 18560 1429120 26524467200
1054	5201157 8276 3744 223937 0.12900546 7.83300786 312 464 464 144768 67172352
1055	5209433 1661 3744 223859 0.1 7.8 78 0 18560 1429120 26524467200
1056	5211094 8276 3744 223937 0.12900546 7.83300786 312 464 464 144768 67172352
1057	5219370 1661 3744 223859 0.1 7.8 78 0 18560 1429120 26524467200
1058	5221031 8276 3744 223937 0.12900546 7.83300786 312 496 496 154752 76756992
1059	5229307 1661 3744 223859 0.1 7.8 78 0 19840 1527680 30309171200
1060	5230968 8276 3744 223937 0.12900546 7.83300786 312 496 496 154752 76756992
1061	5239244 1661 3744 223859 0.1 7.8 78 0 19840 1527680 30309171200
1062	5240905 8276 3744 223937 0.12900546 7.83300786 312 608 608 189696 115335168
1063	5249181 1661 3744 223859 0.1 7.8 78 0 24320 1872640 45542604800
1064	5250842 8276 3744 223937 0.12900546 7.83300786 312 608 608 189696 115335168
1065	5259118 1661 3744 223859 0.1 7.8 78 0 24320 1872640 45542604800
1066	5260779 8276 3744 223937 0.12900546 7.83300786 312 608 608 189696 115335168
1067	5269055 1661 3744 223859 0.1 7.8 78 0 24320 1872640 45542604800
1068	5270716 8276 3744 223937 0.12900546 7.83300786 312 608 608 189696 115335168
1069	5278992 1661 3744 223859 0.1 7.8 78 0 24320 1872640 45542604800
1070	5280653 8276 3744 223937 0.12900546 7.83300786 312 640 640 199680 127795200
1071	5288929 1661 3744 223859 0.1 7.8 78 0 25600 1971200 50462720000
1072	5290590 8276 3744 223937 0.12900546 7.83300786 312 640 640 199680 127795200
1073	5298866 1661 3744 223859 0.1 7.8 78 0 25600 1971200 50462720000
1074	5300527 8276 3744 223937 0.12900546 7.83300786 312 640 640 199680 127795200
1075	5308803 1661 3744 223859 0.1 7.8 78 0 25600 1971200 50462720000
1076	5310464 8276 3744 223937 0.12900546 7.83300786 312 640 640 199680 127795200
1077	5318740 1661 3744 223859 0.1 7.8 78 0 25600 1971200 50462720000
1078	5320401 15304 3744 223941 0.12900546 7.83300786 624 0 1 312 312
1079	5335705 15928 3744 223941 0.12900546 7.83300786 624 0 640 199680 127795200
1080	5351633 15304 3744 223941 0.12900546 7.83300786 624 0 1 312 312
1081	5366937 15928 3744 223941 0.12900546 7.83300786 624 0 640 199680 127795200
1082	5382865 7652 3745 223940 0.12900546 7.83300786 312 0 0 0 0
1083	5390517 8276 3745 223940 0.12900546 7.83300786 312 640 640 199680 127795200
1084	5398793 1661 3745 223860 0.1 7.8 78 0 25600 1971200 50462720000
1085	5400454 8276 3745 223940 0.12900546 7.83300786 312 640 640 199680 127795200
1086	5408730 1661 3745 223860 0.1 7.8 78 0 25600 1971200 50462720000
1087	5410391 8276 3745 223940 0.12900546 7.83300786 312 640 640 199680 127795200
1088	5418667 1661 3745 223860 0.1 7.8 78 0 25600 1971200 50462720000
1089	5420328 8276 3745 223940 0.12900546 7.83300786 312 640 640 199680 127795200
1090	5428604 1661 3745 223860 0.1 7.8 78 0 25600 1971200 50462720000
1091	5430265 8276 3745 223940 0.12900546 7.83300786 312 640 640 199680 127795200
1092	5438541 1661 3745 223860 0.1 7.8 78 0 25600 1971200 50462720000
1093	5440202 8276 3745 223940 0.12900546 7.83300786 312 640 640 199680 127795200
1094	5448478 1661 3745 223860 0.1 7.8 78 0 25600 1971200 50462720000
1095	5450139 7652 3745 223940 0.12900546 7.83300786 312 0 0 0 0
1096	5457791 8276 3745 223940 0.12900546 7.83300786 312 640 640 199680 127795200
1097	5466067 1661 3745 223860 0.1 7.8 78 0 25600 1971200 50462720000
1098	5467728 8276 3745 223940 0.12900546 7.83300786 312 640 640 199680 127795200
1099	5476004 1661 3745 223860 0.1 7.8 78 0 25600 1971200 50462720000
1100	5477665 8276 3745 223940 0.12900546 7.83300786 312 640 640 199680 127795200
1101	5485941 1661 3745 223860 0.1 7.8 78 0 25600 1971200 50462720000
1102	5487602 8276 3745 223940 0.12900546 7.83300786 312 640 640 199680 127795200
1103	5495878 1661 3745 223860 0.1 7.8 78 0 25600 1971200 50462720000
1104	5497539 8276 3745 223940 0.12900546 7.83300786 312 640 640 199680 127795200
1105	5505815 1661 3745 223860 0.1 7.8 78 0 25600 1971200 50462720000
1106	5507476 8276 3745 223940 0.12900546 7.83300786 312 640 640 199680 127795200
1107	5515752 1661 3745 223860 0.1 7.8 78 0 25600 1971200 50462720000
1108	5517413 8276 3745 223940 0.12900546 7.83300786 312 704 704 219648 154632192
1109	5525689 1661 3745 223860 0.1 7.8 78 0 28160 2168320 61059891200
1110	5527350 8276 3745 223940 0.12900546 7.83300786 312 704 704 219648 154632192
1111	5535626 1661 3745 223860 0.1 7.8 78 0 28160 2168320 61059891200
1112	5537287 8276 3745 223940 0.12900546 7.83300786 312 704 704 219648 154632192
1113	5545563 1661 3745 223860 0.1 7.8 78 0 28160 2168320 61059891200
1114	5547224 1892 3745 223860 0.1 7.8 78 0 0.002816 0.216832 0.000610598912
1115	5549116 7652 3746 223941 0.12900546 7.83300786 312 0 0 0 0
1116	5556768 8276 3746 223941 0.12900546 7.83300786 312 640 640 199680 127795200
1117	5565044 1661 3746 223861 0.1 7.8 78 0 25600 1971200 50462720000
1118	5566705 8276 3746 223941 0.12900546 7.83300786 312 640 640 199680 127795200
1119	5574981 1661 3746 223861 0.1 7.8 78 0 25600 1971200 50462720000
1120	5576642 8276 3746 223941 0.12900546 7.83300786 312 640 640 199680 127795200
1121	5584918 1661 3746 223861 0.1 7.8 78 0 25600 1971200 50462720000
1122	5586579 8276 3746 223941 0.12900546 7.83300786 312 640 640 199680 127795200
1123	5594855 1661 3746 223861 0.1 7.8 78 0 25600 1971200 50462720000
1124	5596516 8276 3746 223941 0.12900546 7.83300786 312 640 640 199680 127795200
1125	5604792 1661 3746 223861 0.1 7.8 78 0 25600 1971200 50462720000
1126	5606453 8276 3746 223941 0.12900546 7.83300786 312 640 640 199680 127795200
1127	5614729 1661 3746 223861 0.1 7.8 78 0 25600 1971200 50462720000
1128	5616390 7652 3746 223941 0.12900546 7.83300786 312 0 0 0 0
1129	5624042 8276 3746 223941 0.12900546 7.83300786 312 640 640 199680 127795200
1130	5632318 1661 3746 223861 0.1 7.8 78 0 25600 1971200 50462720000
1131	5633979 8276 3746 223941 0.12900546 7.83300786 312 640 640 199680 127795200
1132	5642255 1661 3746 223861 0.1 7.8 78 0 25600 1971200 50462720000
1133	5643916 8276 3746 223941 0.12900546 7.83300786 312 640 640 199680 127795200
1134	5652192 1661 3746 223861 0.1 7.8 78 0 25600 1971200 50462720000
1135	5653853 8276 3746 223941 0.12900546 7.83300786 312 640 640 199680 127795200
1136	5662129 1661 3746 223861 0.1 7.8 78 0 25600 1971200 50462720000
1137	5663790 8276 3746 223941 0.12900546 7.83300786 312 640 640 199680 127795200
1138	5672066 1661 3746 223861 0.1 7.8 78 0 25600 1971200 50462720000
1139	5673727 8276 3746 223941 0.12900546 7.83300786 312 640 640 199680 127795200
1140	5682003 1661 3746 223861 0.1 7.8 78 0 25600 1971200 50462720000
1141	5683664 8276 3746 223941 0.12900546 7.83300786 312 704 704 219648 154632192
1142	5691940 1661 3746 223861 0.1 7.8 78 0 28160 2168320 61059891200
1143	5693601 8276 3746 223941 0.12900546 7.83300786 312 704 704 219648 154632192
1144	5701877 1661 3746 223861 0.1 7.8 78 0 28160 2168320 61059891200
1145	5703538 8276 3746 223941 0.12900546 7.83300786 312 704 704 219648 154632192
1146	5711814 1661 3746 223861 0.1 7.8 78 0 28160 2168320 61059891200
1147	5713475 1892 3746 223861 0.1 7.8 78 0 0.002816 0.216832 0.000610598912
1148	5715367 1661 3754 223869 0.1 7.8 78 0 28160 2168320 61059891200
1149	5717028 10148 3754 223946 0.129006164 7.833008564 312 7.04e-07 7.04e-07 0.000219648 1.54632192e-10
1150	5727176 1661 3755 223870 0.1 7.8 78 0 28160 2168320 61059891200
1151	5728837 10148 3755 223947 0.129006164 7.833008564 312 7.04e-07 7.04e-07 0.000219648 1.54632192e-10
1152	5738985 1661 3758 223873 0.1 7.8 78 0 28160 2168320 61059891200
1153	5740646 10148 3758 223948 0.129006214 7.833008614 312 7.04e-07 7.04e-07 0.000219648 1.54632192e-10
1154	5750794 8588 3758 223948 0.129006214 7.833008614 312 704 704 219648 154632192
1155	5759382 1661 3758 223873 0.1 7.8 78 0 28160 2168320 61059891200
1156	5761043 8588 3758 223948 0.129006214 7.833008614 312 704 704 219648 154632192
1157	5769631 1661 3758 223873 0.1 7.8 78 0 28160 2168320 61059891200
1158	5771292 8588 3758 223948 0.129006214 7.833008614 312 704 704 219648 154632192
1159	5779880 1661 3758 223873 0.1 7.8 78 0 28160 2168320 61059891200
1160	5781541 8588 3758 223948 0.129006214 7.833008614 312 640 640 199680 127795200
1161	5790129 1661 3758 223873 0.1 7.8 78 0 25600 1971200 50462720000
1162	5791790 8588 3758 223948 0.129006214 7.833008614 312 640 640 199680 127795200
1163	5800378 1661 3758 223873 0.1 7.8 78 0 25600 1971200 50462720000
1164	5802039 8588 3758 223948 0.129006214 7.833008614 312 640 640 199680 127795200
1165	5810627 1661 3758 223873 0.1 7.8 78 0 25600 1971200 50462720000
1166	5812288 8588 3758 223948 0.129006214 7.833008614 312 640 640 199680 127795200
1167	5820876 1661 3758 223873 0.1 7.8 78 0 25600 1971200 50462720000
1168	5822537 8588 3758 223948 0.129006214 7.833008614 312 640 640 199680 127795200
1169	5831125 1661 3758 223873 0.1 7.8 78 0 25600 1971200 50462720000
1170	5832786 1661 3759 223874 0.1 7.8 78 0 28160 2168320 61059891200
1171	5834447 10148 3759 223949 0.129006214 7.833008614 312 7.04e-07 7.04e-07 0.000219648 1.54632192e-10
1172	5844595 8588 3759 223949 0.129006214 7.833008614 312 704 704 219648 154632192
1173	5853183 1661 3759 223874 0.1 7.8 78 0 28160 2168320 61059891200
1174	5854844 8588 3759 223949 0.129006214 7.833008614 312 704 704 219648 154632192
1175	5863432 1661 3759 223874 0.1 7.8 78 0 28160 2168320 61059891200
1176	5865093 8588 3759 223949 0.129006214 7.833008614 312 704 704 219648 154632192
1177	5873681 1661 3759 223874 0.1 7.8 78 0 28160 2168320 61059891200
1178	5875342 8588 3759 223949 0.129006214 7.833008614 312 640 640 199680 127795200
1179	5883930 1661 3759 223874 0.1 7.8 78 0 25600 1971200 50462720000
1180	5885591 8588 3759 223949 0.129006214 7.833008614 312 640 640 199680 127795200
1181	5894179 1661 3759 223874 0.1 7.8 78 0 25600 1971200 50462720000
1182	5895840 8588 3759 223949 0.129006214 7.833008614 312 640 640 199680 127795200
1183	5904428 1661 3759 223874 0.1 7.8 78 0 25600 1971200 50462720000
1184	5906089 8588 3759 223949 0.129006214 7.833008614 312 640 640 199680 127795200
1185	5914677 1661 3759 223874 0.1 7.8 78 0 25600 1971200 50462720000
1186	5916338 8588 3759 223949 0.129006214 7.833008614 312 640 640 199680 127795200
1187	5924926 1661 3759 223874 0.1 7.8 78 0 25600 1971200 50462720000
1188	5926587 2147 3764 223879 0.129006214 7.833006214 78 132 132 10296 1359072
1189	5928734 2225 3766 223881 0.129006214 7.833006214 78 1216 1216 94848 115335168
1190	5930959 1661 3766 223881 0.1 7.8 78 0 12160 936320 11385651200
1191	5932620 1991 3766 223881 0.129006214 7.833006214 78 0 0 0 0
1192	5934611 2225 3766 223881 0.129006214 7.833006214 78 1216 1216 94848 115335168
1193	5936836 1661 3766 223881 0.1 7.8 78 0 12160 936320 11385651200
1194	5938497 2147 3766 223881 0.129006214 7.833006214 78 152 152 11856 1802112
1195	5940644 2147 3766 223881 0.129006214 7.833006214 78 159 159 12402 1971918
1196	5942791 1991 3766 223881 0.129006214 7.833006214 78 0 0 0 0
1197	5944782 1991 3766 223881 0.129006214 7.833006214 78 0 0 0 0
1198	5946773 2147 3804 223919 0.129007536 7.833007536 78 159 159 12402 1971918
1199	5948920 2147 3804 223919 0.129007536 7.833007536 78 152 152 11856 1802112
1200	5951067 2147 3806 223921 0.129007536 7.833007536 78 132 132 10296 1359072
1201	5953214 2147 3809 223924 0.129007536 7.833007536 78 116 116 9048 1049568
1202	5955361 2147 3809 223924 0.129007536 7.833007536 78 117 117 9126 1067742
1203	5957508 2147 3810 223925 0.129007536 7.833007536 78 117 117 9126 1067742
1204	5959655 3783 3812 223960 0.129007536 7.834 156 119 119 18564 2209116
1205	5963438 1480 3843 223958 0.13 7.834 78 0 0 0 0
1206	5964918 1636 3843 223958 0.13 7.834 78 119 119 9282 1104558
1207	5966554 989 3867 223982 0.13 7.834 51 0 1 2 2
1208	5967543 1600 3888 224003 0.131 7.835 78 14 14 1092 15288
1209	5969143 2536 3888 224003 0.131 7.835 78 945.1452056589 945.1452056589 73721.326041394 69677357.86284
1210	5971679 2614 3888 224003 0.131 7.835 78 32.450317968045 32.450317968045 2531.1248015075 82135.804625723
1211	5974293 1822 3949 224064 0.134 7.838 78 0.004 0.004 0.312 0.001248
1212	5976115 1666 3952 224067 0.134 7.838 78 119 119 9282 1104558
1213	5977781 1510 3952 224067 0.134 7.838 78 0 0 0 0
1214	5979291 1822 3952 224067 0.134 7.838 78 0.004 0.004 0.312 0.001248
1215	5981113 2574 3952 224067 0.134 7.838 78 873.13432835821 1164.903546982 89384.81716238 102568687.38748
1216	5983687 1510 3952 224067 0.134 7.838 78 0 0 0 0
1217	5985197 2290 3952 224067 0.134 7.838 78 0.004992464 0.004992464 0.389412192 0.0019441263497211
1218	5987487 1666 3952 224067 0.134 7.838 78 117 117 9126 1067742
1219	5989153 1510 3952 224067 0.134 7.838 78 0 0 0 0
1220	5990663 1666 3953 224068 0.134 7.838 78 117 117 9126 1067742
1221	5992329 1666 3953 224068 0.134 7.838 78 116 116 9048 1049568
1222	5993995 1588 3956 224071 0.134 7.838 78 96 96 7488 718848
1223	5995583 1666 3958 224073 0.134 7.838 78 640 640 49920 31948800
1224	5997249 1584 3958 224073 0.1 7.8 78 0 6400 492800 3153920000
1225	5998833 3020 3958 224074 0.134 7.838 156 0 1 78 78
1226	6001853 3176 3958 224074 0.134 7.838 156 0 640 49920 31948800
1227	6005029 1510 3959 224074 0.134 7.838 78 0 0 0 0
1228	6006539 1666 3959 224074 0.134 7.838 78 640 640 49920 31948800
1229	6008205 1584 3959 224074 0.1 7.8 78 0 6400 492800 3153920000
1230	6009789 1666 3959 224074 0.134 7.838 78 640 640 49920 31948800
1231	6011455 1584 3959 224074 0.1 7.8 78 0 6400 492800 3153920000
1232	6013039 1666 3959 224074 0.134 7.838 78 640 640 49920 31948800
1233	6014705 1584 3959 224074 0.1 7.8 78 0 6400 492800 3153920000
1234	6016289 1666 3959 224074 0.134 7.838 78 640 640 49920 31948800
1235	6017955 1584 3959 224074 0.1 7.8 78 0 6400 492800 3153920000
1236	6019539 1666 3959 224074 0.134 7.838 78 640 640 49920 31948800
1237	6021205 1584 3959 224074 0.1 7.8 78 0 6400 492800 3153920000
1238	6022789 1666 3959 224074 0.134 7.838 78 640 640 49920 31948800
1239	6024455 1584 3959 224074 0.1 7.8 78 0 6400 492800 3153920000
1240	6026039 1666 3959 224074 0.134 7.838 78 704 704 54912 38658048
1241	6027705 1584 3959 224074 0.1 7.8 78 0 7040 542080 3816243200
1242	6029289 1666 3959 224074 0.134 7.838 78 704 704 54912 38658048
1243	6030955 1584 3959 224074 0.1 7.8 78 0 7040 542080 3816243200
1244	6032539 1666 3959 224074 0.134 7.838 78 704 704 54912 38658048
1245	6034205 1584 3959 224074 0.1 7.8 78 0 7040 542080 3816243200
1246	6035789 1815 3959 224074 0.1 7.8 78 0 0.00112 0.08624 9.65888e-05
1247	6037604 1584 3992 224107 0.1 7.8 78 0 7040 542080 3816243200
1248	6039188 2459 3992 224107 0.13400112 7.83800112 78 1.12e-06 1.12e-06 8.736e-05 9.78432e-11
1249	6041647 1584 3993 224108 0.1 7.8 78 0 7040 542080 3816243200
1250	6043231 2459 3993 224108 0.13400117 7.83800117 78 1.12e-06 1.12e-06 8.736e-05 9.78432e-11
1251	6045690 2069 3993 224108 0.13400117 7.83800117 78 704 704 54912 38658048
1252	6047759 1584 3993 224108 0.1 7.8 78 0 7040 542080 3816243200
1253	6049343 2069 3993 224108 0.13400117 7.83800117 78 704 704 54912 38658048
1254	6051412 1584 3993 224108 0.1 7.8 78 0 7040 542080 3816243200
1255	6052996 2069 3993 224108 0.13400117 7.83800117 78 704 704 54912 38658048
1256	6055065 1584 3993 224108 0.1 7.8 78 0 7040 542080 3816243200
1257	6056649 2069 3993 224108 0.13400117 7.83800117 78 640 640 49920 31948800
1258	6058718 1584 3993 224108 0.1 7.8 78 0 6400 492800 3153920000
1259	6060302 2069 3993 224108 0.13400117 7.83800117 78 640 640 49920 31948800
1260	6062371 1584 3993 224108 0.1 7.8 78 0 6400 492800 3153920000
1261	6063955 2069 3993 224108 0.13400117 7.83800117 78 640 640 49920 31948800
1262	6066024 1584 3993 224108 0.1 7.8 78 0 6400 492800 3153920000
1263	6067608 2069 3993 224108 0.13400117 7.83800117 78 640 640 49920 31948800
1264	6069677 1584 3993 224108 0.1 7.8 78 0 6400 492800 3153920000
1265	6071261 2069 3993 224108 0.13400117 7.83800117 78 640 640 49920 31948800
1266	6073330 1584 3993 224108 0.1 7.8 78 0 6400 492800 3153920000
1267	6074914 2069 3993 224108 0.13400117 7.83800117 78 640 640 49920 31948800
1268	6076983 1584 3993 224108 0.1 7.8 78 0 6400 492800 3153920000
1269	6078567 2069 3993 224108 0.13400117 7.83800117 78 608 608 47424 28833792
1270	6080636 1584 3993 224108 0.1 7.8 78 0 6080 468160 2846412800
1271	6082220 2069 3993 224108 0.13400117 7.83800117 78 608 608 47424 28833792
1272	6084289 1584 3993 224108 0.1 7.8 78 0 6080 468160 2846412800
1273	6085873 2069 3993 224108 0.13400117 7.83800117 78 496 496 38688 19189248
1274	6087942 1584 3993 224108 0.1 7.8 78 0 4960 381920 1894323200
1275	6089526 2069 3993 224108 0.13400117 7.83800117 78 496 496 38688 19189248
1276	6091595 1584 3993 224108 0.1 7.8 78 0 4960 381920 1894323200
1277	6093179 2069 3993 224108 0.13400117 7.83800117 78 464 464 36192 16793088
1278	6095248 1584 3993 224108 0.1 7.8 78 0 4640 357280 1657779200
1279	6096832 2069 3993 224108 0.13400117 7.83800117 78 464 464 36192 16793088
1280	6098901 1584 3993 224108 0.1 7.8 78 0 4640 357280 1657779200
1281	6100485 2069 3993 224108 0.13400117 7.83800117 78 464 464 36192 16793088
1282	6102554 1584 3993 224108 0.1 7.8 78 0 4640 357280 1657779200
1283	6104138 1991 3995 224110 0.13400117 7.83800117 78 38 38 2964 112632
1284	6106129 1991 3996 224111 0.13400117 7.83800117 78 30 30 2340 70200
1285	6108120 1584 3996 224111 0.1 7.8 78 0 2400 184800 443520000
1286	6109704 2693 3996 224111 0.13400117 7.83800117 78 0.004997218 0.004997218 0.389783004 0.0019478306436829
1287	6112397 1913 3996 224111 0.13400117 7.83800117 78 0 0 0 0
1288	6114310 1519 4020 224135 0.135 7.839 78 0 0 0 0
1289	6115829 1519 4020 224135 0.135 7.839 78 0 0 0 0
1290	6117348 1519 4020 224135 0.135 7.839 78 1 1 78 78
1291	6118867 39 106443 161296 3.728 5.64 2 0 0 0 0
