file 20594575 1710486511                                        
version 3
run test1-0-20240315-08:08:12-2178
attr configname test1
attr datetime 20240315-08:08:12
attr datetimef 20240315-080812
attr experiment test1
attr inifile omnetpp.ini
attr iterationvars ""
attr iterationvarsd ""
attr iterationvarsf ""
attr measurement ""
attr network TrainTopology
attr processid 2178
attr repetition 0
attr replication #0
attr resultdir results
attr runnumber 0
attr seedset 0
config image-path ../../inet4.5/images:../../simu5G/images
config network TrainTopology
config sim-time-limit 15.0s
config *.gnb*.numX2Apps 1
config *.gnb*.x2App[*].server.localPort "5000 + ancestorIndex(1)"
config *.gnb1.x2App[0].client.connectAddress "\"gnb2%x2ppp0\""
config *.gnb2.x2App[0].client.connectAddress "\"gnb1%x2ppp0\""
config *.*.dstt.destAddress "\"server\""
config *.*Ue[0].masterId 0
config *.*Ue[0].nrMacCellId 1
config *.*Ue[0].nrMasterId 1
config *.*Ue[1].masterId 0
config *.*Ue[1].nrMacCellId 1
config *.*Ue[1].nrMasterId 1
config *.*Ue[2].masterId 0
config *.*Ue[2].nrMacCellId 1
config *.*Ue[2].nrMasterId 2
config *.*Ue[3].masterId 0
config *.*Ue[3].nrMacCellId 1
config *.*Ue[3].nrMasterId 2
config *.switch3.macTable.forwardingTable "[{address:\"0A-AA-00-00-00-01\", interface:\"eth2\"}]"
config *.T*Client*.numApps 1
config *.T*Client*.app[0].typename UdpBasicApp
config *.T*Client*.app[0].display-name besteffort
config *.T*Client*.app[0].destAddresses "\"server\""
config *.T*Client*.app[0].destPort 1000
config *.T*Client*.app[0].localPort 1000
config *.T*Client*.app[0].messageLength 20B
config *.T*Client*.app[0].sendInterval 0.03s
config *.T*Client*.app[0].startTime 0.1s
config *.T*Client*.app[0].stopTime 1.1s
config *.B*Client*.numApps 1
config *.B*Client*.app[0].typename UdpBasicApp
config *.B*Client*.app[0].display-name video
config *.B*Client*.app[0].destAddresses "\"server\""
config *.B*Client*.app[0].destPort 1001
config *.B*Client*.app[0].localPort 1000
config *.B*Client*.app[0].messageLength 30B
config *.B*Client*.app[0].sendInterval 0.02s
config *.B*Client*.app[0].startTime 0.2s
config *.B*Client*.app[0].stopTime 10s
config *.server.numApps 2
config *.server.app[0].typename UdpSinkApp
config *.server.app[1].typename UdpSinkApp
config *.server.app[0].display-name besteffort
config *.server.app[1].display-name video
config *.server.app[0].io.localPort 1000
config *.server.app[1].io.localPort 1001
config *.*.hasOutgoingStreams true
config *.*.hasIncomingStreams true
config *.*Client*.bridging.streamIdentifier.identifier.mapping "[{stream: \"besteffort\", packetFilter: expr(udp.destPort == 1000)},\n\t\t\t\t\t\t\t\t\t\t\t\t\t\t\t{stream: \"video\", packetFilter: expr(udp.destPort == 1001)}]"
config *.*Client*.bridging.streamCoder.encoder.mapping "[{stream: \"besteffort\", pcp: 0},\n\t\t\t\t\t\t\t\t\t\t\t\t\t{stream: \"video\", pcp: 4}]"
config *.server.bridging.streamIdentifier.identifier.mapping "[{stream: \"besteffort\", packetFilter: expr(udp.destPort == 1000)},\n\t\t\t\t\t\t\t\t\t\t\t\t\t\t\t{stream: \"video\", packetFilter: expr(udp.destPort == 1001)}]"
config *.server.bridging.streamCoder.encoder.mapping "[{stream: \"besteffort\", pcp: 0},\n\t\t\t\t\t\t\t\t\t\t\t\t\t{stream: \"video\", pcp: 4}]"
config *.switch*.bridging.streamCoder.decoder.mapping "[{pcp: 0, stream: \"besteffort\"},\n                                                 {pcp: 4, stream: \"video\"}]"
config *.switch*.bridging.streamCoder.encoder.mapping "[{stream: \"besteffort\", pcp: 0},\n\t\t\t\t\t\t\t\t\t\t\t\t\t{stream: \"video\", pcp: 4}]"
config *.switch*.hasIngressTrafficFiltering true
config *.switch*.bridging.streamFilter.ingress.typename SimpleIeee8021qFilter
config *.switch*.bridging.streamFilter.ingress.numStreams 2
config *.switch*.bridging.streamFilter.ingress.classifier.mapping "{besteffort: 0, video: 1}"
config *.switch*.bridging.streamFilter.ingress.*[0].display-name besteffort
config *.switch*.bridging.streamFilter.ingress.*[1].display-name video
config *.switch*.bridging.streamFilter.ingress.meter[*].typename EligibilityTimeMeter
config *.switch*.bridging.streamFilter.ingress.meter[*].committedInformationRate 20Mbps
config *.switch*.bridging.streamFilter.ingress.meter[*].committedBurstSize 10kB
config *.switch*.bridging.streamFilter.ingress.filter[*].typename EligibilityTimeFilter
config *.switch*.hasEgressTrafficShaping true
config *.switch*.bridging.directionReverser.reverser.excludeEncapsulationProtocols "[\"ieee8021qctag\"]"
config *.switch*.eth[*].macLayer.queue.numTrafficClasses 2
config *.switch*.eth[*].macLayer.queue.*[0].display-name besteffort
config *.switch*.eth[*].macLayer.queue.*[1].display-name video
config *.switch*.eth[*].macLayer.queue.queue[0].typename EligibilityTimeQueue
config *.switch*.eth[*].macLayer.queue.queue[1].typename EligibilityTimeQueue
config *.switch*.eth[*].macLayer.queue.transmissionSelectionAlgorithm[0].typename Ieee8021qAsynchronousShaper
config *.switch*.eth[*].macLayer.queue.transmissionSelectionAlgorithm[0].idleSlope 42.68Mbps
config *.switch*.eth[*].macLayer.queue.transmissionSelectionAlgorithm[1].typename Ieee8021qAsynchronousShaper
config *.switch*.eth[*].macLayer.queue.transmissionSelectionAlgorithm[1].idleSlope 21.34Mbps
config **.downlink_interference true
config **.uplink_interference true
config **.ueTxPower 26
config **.eNodeBTxPower 46
config **.targetBler 0.01
config **.blerShift 5
config **.fbPeriod 40

vector 0 TrainTopology.server.eth[0].phyLayer.interFrameGapInserter interpacketGap:vector ETV
attr interpolationmode sample-hold
attr recordingmode vector
attr source "count(interpacketGapStarted) - count(interpacketGapEnded)"
attr title "interpacket gap state"
attr type int
vector 1 TrainTopology.server.eth[0].phyLayer.transmitter transmitting:vector ETV
attr interpolationmode sample-hold
attr recordingmode vector
attr source "count(transmissionStarted) - count(transmissionEnded)"
attr title "transmitting state"
attr type int
vector 2 TrainTopology.server.udp passedUpPk:vector(count) ETV
attr interpolationmode none
attr recordingmode vector(count)
attr source packetSentToUpper
attr title "packets passed up, count"
vector 3 TrainTopology.server.udp droppedPkWrongPort:vector(count) ETV
attr interpolationmode none
attr recordingmode vector(count)
attr source packetDropReasonIsNoPortFound(packetDropped)
attr title "packets dropped (wrong port), count"
vector 4 TrainTopology.server.udp droppedPkBadChecksum:vector(count) ETV
attr interpolationmode none
attr recordingmode vector(count)
attr source packetDropReasonIsIncorrectlyReceived(packetDropped)
attr title "packets dropped (checksum error), count"
vector 5 TrainTopology.switch1.eth[0].phyLayer.interFrameGapInserter interpacketGap:vector ETV
attr interpolationmode sample-hold
attr recordingmode vector
attr source "count(interpacketGapStarted) - count(interpacketGapEnded)"
attr title "interpacket gap state"
attr type int
vector 6 TrainTopology.switch1.eth[0].phyLayer.transmitter transmitting:vector ETV
attr interpolationmode sample-hold
attr recordingmode vector
attr source "count(transmissionStarted) - count(transmissionEnded)"
attr title "transmitting state"
attr type int
vector 7 TrainTopology.switch1.eth[1].phyLayer.interFrameGapInserter interpacketGap:vector ETV
attr interpolationmode sample-hold
attr recordingmode vector
attr source "count(interpacketGapStarted) - count(interpacketGapEnded)"
attr title "interpacket gap state"
attr type int
vector 8 TrainTopology.switch1.eth[1].phyLayer.transmitter transmitting:vector ETV
attr interpolationmode sample-hold
attr recordingmode vector
attr source "count(transmissionStarted) - count(transmissionEnded)"
attr title "transmitting state"
attr type int
vector 9 TrainTopology.switch2.eth[0].phyLayer.interFrameGapInserter interpacketGap:vector ETV
attr interpolationmode sample-hold
attr recordingmode vector
attr source "count(interpacketGapStarted) - count(interpacketGapEnded)"
attr title "interpacket gap state"
attr type int
vector 10 TrainTopology.switch2.eth[0].phyLayer.transmitter transmitting:vector ETV
attr interpolationmode sample-hold
attr recordingmode vector
attr source "count(transmissionStarted) - count(transmissionEnded)"
attr title "transmitting state"
attr type int
vector 11 TrainTopology.switch2.eth[1].phyLayer.interFrameGapInserter interpacketGap:vector ETV
attr interpolationmode sample-hold
attr recordingmode vector
attr source "count(interpacketGapStarted) - count(interpacketGapEnded)"
attr title "interpacket gap state"
attr type int
vector 12 TrainTopology.switch2.eth[1].phyLayer.transmitter transmitting:vector ETV
attr interpolationmode sample-hold
attr recordingmode vector
attr source "count(transmissionStarted) - count(transmissionEnded)"
attr title "transmitting state"
attr type int
vector 13 TrainTopology.switch3.eth[0].phyLayer.interFrameGapInserter interpacketGap:vector ETV
attr interpolationmode sample-hold
attr recordingmode vector
attr source "count(interpacketGapStarted) - count(interpacketGapEnded)"
attr title "interpacket gap state"
attr type int
vector 14 TrainTopology.switch3.eth[0].phyLayer.transmitter transmitting:vector ETV
attr interpolationmode sample-hold
attr recordingmode vector
attr source "count(transmissionStarted) - count(transmissionEnded)"
attr title "transmitting state"
attr type int
vector 15 TrainTopology.switch3.eth[1].phyLayer.interFrameGapInserter interpacketGap:vector ETV
attr interpolationmode sample-hold
attr recordingmode vector
attr source "count(interpacketGapStarted) - count(interpacketGapEnded)"
attr title "interpacket gap state"
attr type int
vector 16 TrainTopology.switch3.eth[1].phyLayer.transmitter transmitting:vector ETV
attr interpolationmode sample-hold
attr recordingmode vector
attr source "count(transmissionStarted) - count(transmissionEnded)"
attr title "transmitting state"
attr type int
vector 17 TrainTopology.switch3.eth[2].phyLayer.interFrameGapInserter interpacketGap:vector ETV
attr interpolationmode sample-hold
attr recordingmode vector
attr source "count(interpacketGapStarted) - count(interpacketGapEnded)"
attr title "interpacket gap state"
attr type int
vector 18 TrainTopology.switch3.eth[2].phyLayer.transmitter transmitting:vector ETV
attr interpolationmode sample-hold
attr recordingmode vector
attr source "count(transmissionStarted) - count(transmissionEnded)"
attr title "transmitting state"
attr type int
vector 19 TrainTopology.upf1.ppp[0].ppp transmissionState:vector ETV
attr interpolationmode sample-hold
attr recordingmode vector
attr source transmissionStateChanged
attr title "tx state"
vector 20 TrainTopology.upf1.udp passedUpPk:vector(count) ETV
attr interpolationmode none
attr recordingmode vector(count)
attr source packetSentToUpper
attr title "packets passed up, count"
vector 21 TrainTopology.upf1.udp droppedPkWrongPort:vector(count) ETV
attr interpolationmode none
attr recordingmode vector(count)
attr source packetDropReasonIsNoPortFound(packetDropped)
attr title "packets dropped (wrong port), count"
vector 22 TrainTopology.upf1.udp droppedPkBadChecksum:vector(count) ETV
attr interpolationmode none
attr recordingmode vector(count)
attr source packetDropReasonIsIncorrectlyReceived(packetDropped)
attr title "packets dropped (checksum error), count"
vector 23 TrainTopology.upf1.ethInterface.phyLayer.interFrameGapInserter interpacketGap:vector ETV
attr interpolationmode sample-hold
attr recordingmode vector
attr source "count(interpacketGapStarted) - count(interpacketGapEnded)"
attr title "interpacket gap state"
attr type int
vector 24 TrainTopology.upf1.ethInterface.phyLayer.transmitter transmitting:vector ETV
attr interpolationmode sample-hold
attr recordingmode vector
attr source "count(transmissionStarted) - count(transmissionEnded)"
attr title "transmitting state"
attr type int
vector 25 TrainTopology.upf2.ppp[0].ppp transmissionState:vector ETV
attr interpolationmode sample-hold
attr recordingmode vector
attr source transmissionStateChanged
attr title "tx state"
vector 26 TrainTopology.upf2.udp passedUpPk:vector(count) ETV
attr interpolationmode none
attr recordingmode vector(count)
attr source packetSentToUpper
attr title "packets passed up, count"
vector 27 TrainTopology.upf2.udp droppedPkWrongPort:vector(count) ETV
attr interpolationmode none
attr recordingmode vector(count)
attr source packetDropReasonIsNoPortFound(packetDropped)
attr title "packets dropped (wrong port), count"
vector 28 TrainTopology.upf2.udp droppedPkBadChecksum:vector(count) ETV
attr interpolationmode none
attr recordingmode vector(count)
attr source packetDropReasonIsIncorrectlyReceived(packetDropped)
attr title "packets dropped (checksum error), count"
vector 29 TrainTopology.upf2.ethInterface.phyLayer.interFrameGapInserter interpacketGap:vector ETV
attr interpolationmode sample-hold
attr recordingmode vector
attr source "count(interpacketGapStarted) - count(interpacketGapEnded)"
attr title "interpacket gap state"
attr type int
vector 30 TrainTopology.upf2.ethInterface.phyLayer.transmitter transmitting:vector ETV
attr interpolationmode sample-hold
attr recordingmode vector
attr source "count(transmissionStarted) - count(transmissionEnded)"
attr title "transmitting state"
attr type int
vector 31 TrainTopology.gnb1.pppIf.ppp transmissionState:vector ETV
attr interpolationmode sample-hold
attr recordingmode vector
attr source transmissionStateChanged
attr title "tx state"
vector 32 TrainTopology.gnb1.x2ppp[0].ppp transmissionState:vector ETV
attr interpolationmode sample-hold
attr recordingmode vector
attr source transmissionStateChanged
attr title "tx state"
vector 33 TrainTopology.gnb1.pppMEHostIf.ppp transmissionState:vector ETV
attr interpolationmode sample-hold
attr recordingmode vector
attr source transmissionStateChanged
attr title "tx state"
vector 34 TrainTopology.gnb1.udp passedUpPk:vector(count) ETV
attr interpolationmode none
attr recordingmode vector(count)
attr source packetSentToUpper
attr title "packets passed up, count"
vector 35 TrainTopology.gnb1.udp droppedPkWrongPort:vector(count) ETV
attr interpolationmode none
attr recordingmode vector(count)
attr source packetDropReasonIsNoPortFound(packetDropped)
attr title "packets dropped (wrong port), count"
vector 36 TrainTopology.gnb1.udp droppedPkBadChecksum:vector(count) ETV
attr interpolationmode none
attr recordingmode vector(count)
attr source packetDropReasonIsIncorrectlyReceived(packetDropped)
attr title "packets dropped (checksum error), count"
vector 37 TrainTopology.gnb2.pppIf.ppp transmissionState:vector ETV
attr interpolationmode sample-hold
attr recordingmode vector
attr source transmissionStateChanged
attr title "tx state"
vector 38 TrainTopology.gnb2.x2ppp[0].ppp transmissionState:vector ETV
attr interpolationmode sample-hold
attr recordingmode vector
attr source transmissionStateChanged
attr title "tx state"
vector 39 TrainTopology.gnb2.pppMEHostIf.ppp transmissionState:vector ETV
attr interpolationmode sample-hold
attr recordingmode vector
attr source transmissionStateChanged
attr title "tx state"
vector 40 TrainTopology.gnb2.udp passedUpPk:vector(count) ETV
attr interpolationmode none
attr recordingmode vector(count)
attr source packetSentToUpper
attr title "packets passed up, count"
vector 41 TrainTopology.gnb2.udp droppedPkWrongPort:vector(count) ETV
attr interpolationmode none
attr recordingmode vector(count)
attr source packetDropReasonIsNoPortFound(packetDropped)
attr title "packets dropped (wrong port), count"
vector 42 TrainTopology.gnb2.udp droppedPkBadChecksum:vector(count) ETV
attr interpolationmode none
attr recordingmode vector(count)
attr source packetDropReasonIsIncorrectlyReceived(packetDropped)
attr title "packets dropped (checksum error), count"
vector 43 TrainTopology.TCUClient[0].eth[0].phyLayer.interFrameGapInserter interpacketGap:vector ETV
attr interpolationmode sample-hold
attr recordingmode vector
attr source "count(interpacketGapStarted) - count(interpacketGapEnded)"
attr title "interpacket gap state"
attr type int
vector 44 TrainTopology.TCUClient[0].eth[0].phyLayer.transmitter transmitting:vector ETV
attr interpolationmode sample-hold
attr recordingmode vector
attr source "count(transmissionStarted) - count(transmissionEnded)"
attr title "transmitting state"
attr type int
vector 45 TrainTopology.TCUClient[0].udp passedUpPk:vector(count) ETV
attr interpolationmode none
attr recordingmode vector(count)
attr source packetSentToUpper
attr title "packets passed up, count"
vector 46 TrainTopology.TCUClient[0].udp droppedPkWrongPort:vector(count) ETV
attr interpolationmode none
attr recordingmode vector(count)
attr source packetDropReasonIsNoPortFound(packetDropped)
attr title "packets dropped (wrong port), count"
vector 47 TrainTopology.TCUClient[0].udp droppedPkBadChecksum:vector(count) ETV
attr interpolationmode none
attr recordingmode vector(count)
attr source packetDropReasonIsIncorrectlyReceived(packetDropped)
attr title "packets dropped (checksum error), count"
vector 48 TrainTopology.TCUClient[1].eth[0].phyLayer.interFrameGapInserter interpacketGap:vector ETV
attr interpolationmode sample-hold
attr recordingmode vector
attr source "count(interpacketGapStarted) - count(interpacketGapEnded)"
attr title "interpacket gap state"
attr type int
vector 49 TrainTopology.TCUClient[1].eth[0].phyLayer.transmitter transmitting:vector ETV
attr interpolationmode sample-hold
attr recordingmode vector
attr source "count(transmissionStarted) - count(transmissionEnded)"
attr title "transmitting state"
attr type int
vector 50 TrainTopology.TCUClient[1].udp passedUpPk:vector(count) ETV
attr interpolationmode none
attr recordingmode vector(count)
attr source packetSentToUpper
attr title "packets passed up, count"
vector 51 TrainTopology.TCUClient[1].udp droppedPkWrongPort:vector(count) ETV
attr interpolationmode none
attr recordingmode vector(count)
attr source packetDropReasonIsNoPortFound(packetDropped)
attr title "packets dropped (wrong port), count"
vector 52 TrainTopology.TCUClient[1].udp droppedPkBadChecksum:vector(count) ETV
attr interpolationmode none
attr recordingmode vector(count)
attr source packetDropReasonIsIncorrectlyReceived(packetDropped)
attr title "packets dropped (checksum error), count"
vector 53 TrainTopology.TCUClient[2].eth[0].phyLayer.interFrameGapInserter interpacketGap:vector ETV
attr interpolationmode sample-hold
attr recordingmode vector
attr source "count(interpacketGapStarted) - count(interpacketGapEnded)"
attr title "interpacket gap state"
attr type int
vector 54 TrainTopology.TCUClient[2].eth[0].phyLayer.transmitter transmitting:vector ETV
attr interpolationmode sample-hold
attr recordingmode vector
attr source "count(transmissionStarted) - count(transmissionEnded)"
attr title "transmitting state"
attr type int
vector 55 TrainTopology.TCUClient[2].udp passedUpPk:vector(count) ETV
attr interpolationmode none
attr recordingmode vector(count)
attr source packetSentToUpper
attr title "packets passed up, count"
vector 56 TrainTopology.TCUClient[2].udp droppedPkWrongPort:vector(count) ETV
attr interpolationmode none
attr recordingmode vector(count)
attr source packetDropReasonIsNoPortFound(packetDropped)
attr title "packets dropped (wrong port), count"
vector 57 TrainTopology.TCUClient[2].udp droppedPkBadChecksum:vector(count) ETV
attr interpolationmode none
attr recordingmode vector(count)
attr source packetDropReasonIsIncorrectlyReceived(packetDropped)
attr title "packets dropped (checksum error), count"
vector 58 TrainTopology.TCUClient[3].eth[0].phyLayer.interFrameGapInserter interpacketGap:vector ETV
attr interpolationmode sample-hold
attr recordingmode vector
attr source "count(interpacketGapStarted) - count(interpacketGapEnded)"
attr title "interpacket gap state"
attr type int
vector 59 TrainTopology.TCUClient[3].eth[0].phyLayer.transmitter transmitting:vector ETV
attr interpolationmode sample-hold
attr recordingmode vector
attr source "count(transmissionStarted) - count(transmissionEnded)"
attr title "transmitting state"
attr type int
vector 60 TrainTopology.TCUClient[3].udp passedUpPk:vector(count) ETV
attr interpolationmode none
attr recordingmode vector(count)
attr source packetSentToUpper
attr title "packets passed up, count"
vector 61 TrainTopology.TCUClient[3].udp droppedPkWrongPort:vector(count) ETV
attr interpolationmode none
attr recordingmode vector(count)
attr source packetDropReasonIsNoPortFound(packetDropped)
attr title "packets dropped (wrong port), count"
vector 62 TrainTopology.TCUClient[3].udp droppedPkBadChecksum:vector(count) ETV
attr interpolationmode none
attr recordingmode vector(count)
attr source packetDropReasonIsIncorrectlyReceived(packetDropped)
attr title "packets dropped (checksum error), count"
vector 63 TrainTopology.TCUUe[0].udp passedUpPk:vector(count) ETV
attr interpolationmode none
attr recordingmode vector(count)
attr source packetSentToUpper
attr title "packets passed up, count"
vector 64 TrainTopology.TCUUe[0].udp droppedPkWrongPort:vector(count) ETV
attr interpolationmode none
attr recordingmode vector(count)
attr source packetDropReasonIsNoPortFound(packetDropped)
attr title "packets dropped (wrong port), count"
vector 65 TrainTopology.TCUUe[0].udp droppedPkBadChecksum:vector(count) ETV
attr interpolationmode none
attr recordingmode vector(count)
attr source packetDropReasonIsIncorrectlyReceived(packetDropped)
attr title "packets dropped (checksum error), count"
vector 66 TrainTopology.TCUUe[1].udp passedUpPk:vector(count) ETV
attr interpolationmode none
attr recordingmode vector(count)
attr source packetSentToUpper
attr title "packets passed up, count"
vector 67 TrainTopology.TCUUe[1].udp droppedPkWrongPort:vector(count) ETV
attr interpolationmode none
attr recordingmode vector(count)
attr source packetDropReasonIsNoPortFound(packetDropped)
attr title "packets dropped (wrong port), count"
vector 68 TrainTopology.TCUUe[1].udp droppedPkBadChecksum:vector(count) ETV
attr interpolationmode none
attr recordingmode vector(count)
attr source packetDropReasonIsIncorrectlyReceived(packetDropped)
attr title "packets dropped (checksum error), count"
vector 69 TrainTopology.TCUUe[2].udp passedUpPk:vector(count) ETV
attr interpolationmode none
attr recordingmode vector(count)
attr source packetSentToUpper
attr title "packets passed up, count"
vector 70 TrainTopology.TCUUe[2].udp droppedPkWrongPort:vector(count) ETV
attr interpolationmode none
attr recordingmode vector(count)
attr source packetDropReasonIsNoPortFound(packetDropped)
attr title "packets dropped (wrong port), count"
vector 71 TrainTopology.TCUUe[2].udp droppedPkBadChecksum:vector(count) ETV
attr interpolationmode none
attr recordingmode vector(count)
attr source packetDropReasonIsIncorrectlyReceived(packetDropped)
attr title "packets dropped (checksum error), count"
vector 72 TrainTopology.TCUUe[3].udp passedUpPk:vector(count) ETV
attr interpolationmode none
attr recordingmode vector(count)
attr source packetSentToUpper
attr title "packets passed up, count"
vector 73 TrainTopology.TCUUe[3].udp droppedPkWrongPort:vector(count) ETV
attr interpolationmode none
attr recordingmode vector(count)
attr source packetDropReasonIsNoPortFound(packetDropped)
attr title "packets dropped (wrong port), count"
vector 74 TrainTopology.TCUUe[3].udp droppedPkBadChecksum:vector(count) ETV
attr interpolationmode none
attr recordingmode vector(count)
attr source packetDropReasonIsIncorrectlyReceived(packetDropped)
attr title "packets dropped (checksum error), count"
vector 75 TrainTopology.BCUClient[0].eth[0].phyLayer.interFrameGapInserter interpacketGap:vector ETV
attr interpolationmode sample-hold
attr recordingmode vector
attr source "count(interpacketGapStarted) - count(interpacketGapEnded)"
attr title "interpacket gap state"
attr type int
vector 76 TrainTopology.BCUClient[0].eth[0].phyLayer.transmitter transmitting:vector ETV
attr interpolationmode sample-hold
attr recordingmode vector
attr source "count(transmissionStarted) - count(transmissionEnded)"
attr title "transmitting state"
attr type int
vector 77 TrainTopology.BCUClient[0].udp passedUpPk:vector(count) ETV
attr interpolationmode none
attr recordingmode vector(count)
attr source packetSentToUpper
attr title "packets passed up, count"
vector 78 TrainTopology.BCUClient[0].udp droppedPkWrongPort:vector(count) ETV
attr interpolationmode none
attr recordingmode vector(count)
attr source packetDropReasonIsNoPortFound(packetDropped)
attr title "packets dropped (wrong port), count"
vector 79 TrainTopology.BCUClient[0].udp droppedPkBadChecksum:vector(count) ETV
attr interpolationmode none
attr recordingmode vector(count)
attr source packetDropReasonIsIncorrectlyReceived(packetDropped)
attr title "packets dropped (checksum error), count"
vector 80 TrainTopology.BCUClient[1].eth[0].phyLayer.interFrameGapInserter interpacketGap:vector ETV
attr interpolationmode sample-hold
attr recordingmode vector
attr source "count(interpacketGapStarted) - count(interpacketGapEnded)"
attr title "interpacket gap state"
attr type int
vector 81 TrainTopology.BCUClient[1].eth[0].phyLayer.transmitter transmitting:vector ETV
attr interpolationmode sample-hold
attr recordingmode vector
attr source "count(transmissionStarted) - count(transmissionEnded)"
attr title "transmitting state"
attr type int
vector 82 TrainTopology.BCUClient[1].udp passedUpPk:vector(count) ETV
attr interpolationmode none
attr recordingmode vector(count)
attr source packetSentToUpper
attr title "packets passed up, count"
vector 83 TrainTopology.BCUClient[1].udp droppedPkWrongPort:vector(count) ETV
attr interpolationmode none
attr recordingmode vector(count)
attr source packetDropReasonIsNoPortFound(packetDropped)
attr title "packets dropped (wrong port), count"
vector 84 TrainTopology.BCUClient[1].udp droppedPkBadChecksum:vector(count) ETV
attr interpolationmode none
attr recordingmode vector(count)
attr source packetDropReasonIsIncorrectlyReceived(packetDropped)
attr title "packets dropped (checksum error), count"
vector 85 TrainTopology.BCUClient[2].eth[0].phyLayer.interFrameGapInserter interpacketGap:vector ETV
attr interpolationmode sample-hold
attr recordingmode vector
attr source "count(interpacketGapStarted) - count(interpacketGapEnded)"
attr title "interpacket gap state"
attr type int
vector 86 TrainTopology.BCUClient[2].eth[0].phyLayer.transmitter transmitting:vector ETV
attr interpolationmode sample-hold
attr recordingmode vector
attr source "count(transmissionStarted) - count(transmissionEnded)"
attr title "transmitting state"
attr type int
vector 87 TrainTopology.BCUClient[2].udp passedUpPk:vector(count) ETV
attr interpolationmode none
attr recordingmode vector(count)
attr source packetSentToUpper
attr title "packets passed up, count"
vector 88 TrainTopology.BCUClient[2].udp droppedPkWrongPort:vector(count) ETV
attr interpolationmode none
attr recordingmode vector(count)
attr source packetDropReasonIsNoPortFound(packetDropped)
attr title "packets dropped (wrong port), count"
vector 89 TrainTopology.BCUClient[2].udp droppedPkBadChecksum:vector(count) ETV
attr interpolationmode none
attr recordingmode vector(count)
attr source packetDropReasonIsIncorrectlyReceived(packetDropped)
attr title "packets dropped (checksum error), count"
vector 90 TrainTopology.BCUClient[3].eth[0].phyLayer.interFrameGapInserter interpacketGap:vector ETV
attr interpolationmode sample-hold
attr recordingmode vector
attr source "count(interpacketGapStarted) - count(interpacketGapEnded)"
attr title "interpacket gap state"
attr type int
vector 91 TrainTopology.BCUClient[3].eth[0].phyLayer.transmitter transmitting:vector ETV
attr interpolationmode sample-hold
attr recordingmode vector
attr source "count(transmissionStarted) - count(transmissionEnded)"
attr title "transmitting state"
attr type int
vector 92 TrainTopology.BCUClient[3].udp passedUpPk:vector(count) ETV
attr interpolationmode none
attr recordingmode vector(count)
attr source packetSentToUpper
attr title "packets passed up, count"
vector 93 TrainTopology.BCUClient[3].udp droppedPkWrongPort:vector(count) ETV
attr interpolationmode none
attr recordingmode vector(count)
attr source packetDropReasonIsNoPortFound(packetDropped)
attr title "packets dropped (wrong port), count"
vector 94 TrainTopology.BCUClient[3].udp droppedPkBadChecksum:vector(count) ETV
attr interpolationmode none
attr recordingmode vector(count)
attr source packetDropReasonIsIncorrectlyReceived(packetDropped)
attr title "packets dropped (checksum error), count"
vector 95 TrainTopology.BCUUe[0].udp passedUpPk:vector(count) ETV
attr interpolationmode none
attr recordingmode vector(count)
attr source packetSentToUpper
attr title "packets passed up, count"
vector 96 TrainTopology.BCUUe[0].udp droppedPkWrongPort:vector(count) ETV
attr interpolationmode none
attr recordingmode vector(count)
attr source packetDropReasonIsNoPortFound(packetDropped)
attr title "packets dropped (wrong port), count"
vector 97 TrainTopology.BCUUe[0].udp droppedPkBadChecksum:vector(count) ETV
attr interpolationmode none
attr recordingmode vector(count)
attr source packetDropReasonIsIncorrectlyReceived(packetDropped)
attr title "packets dropped (checksum error), count"
vector 98 TrainTopology.BCUUe[1].udp passedUpPk:vector(count) ETV
attr interpolationmode none
attr recordingmode vector(count)
attr source packetSentToUpper
attr title "packets passed up, count"
vector 99 TrainTopology.BCUUe[1].udp droppedPkWrongPort:vector(count) ETV
attr interpolationmode none
attr recordingmode vector(count)
attr source packetDropReasonIsNoPortFound(packetDropped)
attr title "packets dropped (wrong port), count"
vector 100 TrainTopology.BCUUe[1].udp droppedPkBadChecksum:vector(count) ETV
attr interpolationmode none
attr recordingmode vector(count)
attr source packetDropReasonIsIncorrectlyReceived(packetDropped)
attr title "packets dropped (checksum error), count"
vector 101 TrainTopology.BCUUe[2].udp passedUpPk:vector(count) ETV
attr interpolationmode none
attr recordingmode vector(count)
attr source packetSentToUpper
attr title "packets passed up, count"
vector 102 TrainTopology.BCUUe[2].udp droppedPkWrongPort:vector(count) ETV
attr interpolationmode none
attr recordingmode vector(count)
attr source packetDropReasonIsNoPortFound(packetDropped)
attr title "packets dropped (wrong port), count"
vector 103 TrainTopology.BCUUe[2].udp droppedPkBadChecksum:vector(count) ETV
attr interpolationmode none
attr recordingmode vector(count)
attr source packetDropReasonIsIncorrectlyReceived(packetDropped)
attr title "packets dropped (checksum error), count"
vector 104 TrainTopology.BCUUe[3].udp passedUpPk:vector(count) ETV
attr interpolationmode none
attr recordingmode vector(count)
attr source packetSentToUpper
attr title "packets passed up, count"
vector 105 TrainTopology.BCUUe[3].udp droppedPkWrongPort:vector(count) ETV
attr interpolationmode none
attr recordingmode vector(count)
attr source packetDropReasonIsNoPortFound(packetDropped)
attr title "packets dropped (wrong port), count"
vector 106 TrainTopology.BCUUe[3].udp droppedPkBadChecksum:vector(count) ETV
attr interpolationmode none
attr recordingmode vector(count)
attr source packetDropReasonIsIncorrectlyReceived(packetDropped)
attr title "packets dropped (checksum error), count"
vector 107 TrainTopology.TCUUe[0].cellularNic.phy servingCell:vector ETV
attr recordingmode vector
attr source servingCell
attr title "ID of the serving eNodeB for the UE"
attr unit ""
vector 108 TrainTopology.TCUUe[0].cellularNic.nrPhy servingCell:vector ETV
attr recordingmode vector
attr source servingCell
attr title "ID of the serving eNodeB for the UE"
attr unit ""
vector 109 TrainTopology.TCUUe[1].cellularNic.phy servingCell:vector ETV
attr recordingmode vector
attr source servingCell
attr title "ID of the serving eNodeB for the UE"
attr unit ""
vector 110 TrainTopology.TCUUe[1].cellularNic.nrPhy servingCell:vector ETV
attr recordingmode vector
attr source servingCell
attr title "ID of the serving eNodeB for the UE"
attr unit ""
vector 111 TrainTopology.TCUUe[2].cellularNic.phy servingCell:vector ETV
attr recordingmode vector
attr source servingCell
attr title "ID of the serving eNodeB for the UE"
attr unit ""
vector 112 TrainTopology.TCUUe[2].cellularNic.nrPhy servingCell:vector ETV
attr recordingmode vector
attr source servingCell
attr title "ID of the serving eNodeB for the UE"
attr unit ""
vector 113 TrainTopology.TCUUe[3].cellularNic.phy servingCell:vector ETV
attr recordingmode vector
attr source servingCell
attr title "ID of the serving eNodeB for the UE"
attr unit ""
vector 114 TrainTopology.TCUUe[3].cellularNic.nrPhy servingCell:vector ETV
attr recordingmode vector
attr source servingCell
attr title "ID of the serving eNodeB for the UE"
attr unit ""
vector 115 TrainTopology.BCUUe[0].cellularNic.phy servingCell:vector ETV
attr recordingmode vector
attr source servingCell
attr title "ID of the serving eNodeB for the UE"
attr unit ""
vector 116 TrainTopology.BCUUe[0].cellularNic.nrPhy servingCell:vector ETV
attr recordingmode vector
attr source servingCell
attr title "ID of the serving eNodeB for the UE"
attr unit ""
vector 117 TrainTopology.BCUUe[1].cellularNic.phy servingCell:vector ETV
attr recordingmode vector
attr source servingCell
attr title "ID of the serving eNodeB for the UE"
attr unit ""
vector 118 TrainTopology.BCUUe[1].cellularNic.nrPhy servingCell:vector ETV
attr recordingmode vector
attr source servingCell
attr title "ID of the serving eNodeB for the UE"
attr unit ""
vector 119 TrainTopology.BCUUe[2].cellularNic.phy servingCell:vector ETV
attr recordingmode vector
attr source servingCell
attr title "ID of the serving eNodeB for the UE"
attr unit ""
vector 120 TrainTopology.BCUUe[2].cellularNic.nrPhy servingCell:vector ETV
attr recordingmode vector
attr source servingCell
attr title "ID of the serving eNodeB for the UE"
attr unit ""
vector 121 TrainTopology.BCUUe[3].cellularNic.phy servingCell:vector ETV
attr recordingmode vector
attr source servingCell
attr title "ID of the serving eNodeB for the UE"
attr unit ""
vector 122 TrainTopology.BCUUe[3].cellularNic.nrPhy servingCell:vector ETV
attr recordingmode vector
attr source servingCell
attr title "ID of the serving eNodeB for the UE"
attr unit ""
vector 123 TrainTopology.switch1.bridging.streamFilter.ingress.meter[0] numTokens:vector ETV
attr interpolationmode linear
attr moduledisplaypath TrainTopology.switch1.bridging.streamFilter.ingress.besteffort
attr recordingmode vector
attr source tokensChanged
attr title "number of tokens"
attr unit tk
vector 124 TrainTopology.switch1.bridging.streamFilter.ingress.meter[1] numTokens:vector ETV
attr interpolationmode linear
attr moduledisplaypath TrainTopology.switch1.bridging.streamFilter.ingress.video
attr recordingmode vector
attr source tokensChanged
attr title "number of tokens"
attr unit tk
vector 125 TrainTopology.switch1.eth[0].macLayer.queue.transmissionSelectionAlgorithm[0] gateState:vector ETV
attr enum CLOSED,OPEN
attr interpolationmode sample-hold
attr moduledisplaypath TrainTopology.switch1.eth[0].macLayer.queue.besteffort
attr recordingmode vector
attr source gateStateChanged
attr title "gate state"
attr type enum
vector 126 TrainTopology.switch1.eth[0].macLayer.queue.transmissionSelectionAlgorithm[0] remainingEligibilityTime:vector ETV
attr interpolationmode linear
attr moduledisplaypath TrainTopology.switch1.eth[0].macLayer.queue.besteffort
attr recordingmode vector
attr source remainingEligibilityTimeChanged
attr title "remaining eligibility time"
attr unit s
vector 127 TrainTopology.switch1.eth[0].macLayer.queue.transmissionSelectionAlgorithm[1] gateState:vector ETV
attr enum CLOSED,OPEN
attr interpolationmode sample-hold
attr moduledisplaypath TrainTopology.switch1.eth[0].macLayer.queue.video
attr recordingmode vector
attr source gateStateChanged
attr title "gate state"
attr type enum
vector 128 TrainTopology.switch1.eth[0].macLayer.queue.transmissionSelectionAlgorithm[1] remainingEligibilityTime:vector ETV
attr interpolationmode linear
attr moduledisplaypath TrainTopology.switch1.eth[0].macLayer.queue.video
attr recordingmode vector
attr source remainingEligibilityTimeChanged
attr title "remaining eligibility time"
attr unit s
vector 129 TrainTopology.switch1.eth[1].macLayer.queue.transmissionSelectionAlgorithm[0] gateState:vector ETV
attr enum CLOSED,OPEN
attr interpolationmode sample-hold
attr moduledisplaypath TrainTopology.switch1.eth[1].macLayer.queue.besteffort
attr recordingmode vector
attr source gateStateChanged
attr title "gate state"
attr type enum
vector 130 TrainTopology.switch1.eth[1].macLayer.queue.transmissionSelectionAlgorithm[0] remainingEligibilityTime:vector ETV
attr interpolationmode linear
attr moduledisplaypath TrainTopology.switch1.eth[1].macLayer.queue.besteffort
attr recordingmode vector
attr source remainingEligibilityTimeChanged
attr title "remaining eligibility time"
attr unit s
vector 131 TrainTopology.switch1.eth[1].macLayer.queue.transmissionSelectionAlgorithm[1] gateState:vector ETV
attr enum CLOSED,OPEN
attr interpolationmode sample-hold
attr moduledisplaypath TrainTopology.switch1.eth[1].macLayer.queue.video
attr recordingmode vector
attr source gateStateChanged
attr title "gate state"
attr type enum
vector 132 TrainTopology.switch1.eth[1].macLayer.queue.transmissionSelectionAlgorithm[1] remainingEligibilityTime:vector ETV
attr interpolationmode linear
attr moduledisplaypath TrainTopology.switch1.eth[1].macLayer.queue.video
attr recordingmode vector
attr source remainingEligibilityTimeChanged
attr title "remaining eligibility time"
attr unit s
vector 133 TrainTopology.switch2.bridging.streamFilter.ingress.meter[0] numTokens:vector ETV
attr interpolationmode linear
attr moduledisplaypath TrainTopology.switch2.bridging.streamFilter.ingress.besteffort
attr recordingmode vector
attr source tokensChanged
attr title "number of tokens"
attr unit tk
vector 134 TrainTopology.switch2.bridging.streamFilter.ingress.meter[1] numTokens:vector ETV
attr interpolationmode linear
attr moduledisplaypath TrainTopology.switch2.bridging.streamFilter.ingress.video
attr recordingmode vector
attr source tokensChanged
attr title "number of tokens"
attr unit tk
vector 135 TrainTopology.switch2.eth[0].macLayer.queue.transmissionSelectionAlgorithm[0] gateState:vector ETV
attr enum CLOSED,OPEN
attr interpolationmode sample-hold
attr moduledisplaypath TrainTopology.switch2.eth[0].macLayer.queue.besteffort
attr recordingmode vector
attr source gateStateChanged
attr title "gate state"
attr type enum
vector 136 TrainTopology.switch2.eth[0].macLayer.queue.transmissionSelectionAlgorithm[0] remainingEligibilityTime:vector ETV
attr interpolationmode linear
attr moduledisplaypath TrainTopology.switch2.eth[0].macLayer.queue.besteffort
attr recordingmode vector
attr source remainingEligibilityTimeChanged
attr title "remaining eligibility time"
attr unit s
vector 137 TrainTopology.switch2.eth[0].macLayer.queue.transmissionSelectionAlgorithm[1] gateState:vector ETV
attr enum CLOSED,OPEN
attr interpolationmode sample-hold
attr moduledisplaypath TrainTopology.switch2.eth[0].macLayer.queue.video
attr recordingmode vector
attr source gateStateChanged
attr title "gate state"
attr type enum
vector 138 TrainTopology.switch2.eth[0].macLayer.queue.transmissionSelectionAlgorithm[1] remainingEligibilityTime:vector ETV
attr interpolationmode linear
attr moduledisplaypath TrainTopology.switch2.eth[0].macLayer.queue.video
attr recordingmode vector
attr source remainingEligibilityTimeChanged
attr title "remaining eligibility time"
attr unit s
vector 139 TrainTopology.switch2.eth[1].macLayer.queue.transmissionSelectionAlgorithm[0] gateState:vector ETV
attr enum CLOSED,OPEN
attr interpolationmode sample-hold
attr moduledisplaypath TrainTopology.switch2.eth[1].macLayer.queue.besteffort
attr recordingmode vector
attr source gateStateChanged
attr title "gate state"
attr type enum
vector 140 TrainTopology.switch2.eth[1].macLayer.queue.transmissionSelectionAlgorithm[0] remainingEligibilityTime:vector ETV
attr interpolationmode linear
attr moduledisplaypath TrainTopology.switch2.eth[1].macLayer.queue.besteffort
attr recordingmode vector
attr source remainingEligibilityTimeChanged
attr title "remaining eligibility time"
attr unit s
vector 141 TrainTopology.switch2.eth[1].macLayer.queue.transmissionSelectionAlgorithm[1] gateState:vector ETV
attr enum CLOSED,OPEN
attr interpolationmode sample-hold
attr moduledisplaypath TrainTopology.switch2.eth[1].macLayer.queue.video
attr recordingmode vector
attr source gateStateChanged
attr title "gate state"
attr type enum
vector 142 TrainTopology.switch2.eth[1].macLayer.queue.transmissionSelectionAlgorithm[1] remainingEligibilityTime:vector ETV
attr interpolationmode linear
attr moduledisplaypath TrainTopology.switch2.eth[1].macLayer.queue.video
attr recordingmode vector
attr source remainingEligibilityTimeChanged
attr title "remaining eligibility time"
attr unit s
vector 143 TrainTopology.switch3.bridging.streamFilter.ingress.meter[0] numTokens:vector ETV
attr interpolationmode linear
attr moduledisplaypath TrainTopology.switch3.bridging.streamFilter.ingress.besteffort
attr recordingmode vector
attr source tokensChanged
attr title "number of tokens"
attr unit tk
vector 144 TrainTopology.switch3.bridging.streamFilter.ingress.meter[1] numTokens:vector ETV
attr interpolationmode linear
attr moduledisplaypath TrainTopology.switch3.bridging.streamFilter.ingress.video
attr recordingmode vector
attr source tokensChanged
attr title "number of tokens"
attr unit tk
vector 145 TrainTopology.switch3.eth[0].macLayer.queue.transmissionSelectionAlgorithm[0] gateState:vector ETV
attr enum CLOSED,OPEN
attr interpolationmode sample-hold
attr moduledisplaypath TrainTopology.switch3.eth[0].macLayer.queue.besteffort
attr recordingmode vector
attr source gateStateChanged
attr title "gate state"
attr type enum
vector 146 TrainTopology.switch3.eth[0].macLayer.queue.transmissionSelectionAlgorithm[0] remainingEligibilityTime:vector ETV
attr interpolationmode linear
attr moduledisplaypath TrainTopology.switch3.eth[0].macLayer.queue.besteffort
attr recordingmode vector
attr source remainingEligibilityTimeChanged
attr title "remaining eligibility time"
attr unit s
vector 147 TrainTopology.switch3.eth[0].macLayer.queue.transmissionSelectionAlgorithm[1] gateState:vector ETV
attr enum CLOSED,OPEN
attr interpolationmode sample-hold
attr moduledisplaypath TrainTopology.switch3.eth[0].macLayer.queue.video
attr recordingmode vector
attr source gateStateChanged
attr title "gate state"
attr type enum
vector 148 TrainTopology.switch3.eth[0].macLayer.queue.transmissionSelectionAlgorithm[1] remainingEligibilityTime:vector ETV
attr interpolationmode linear
attr moduledisplaypath TrainTopology.switch3.eth[0].macLayer.queue.video
attr recordingmode vector
attr source remainingEligibilityTimeChanged
attr title "remaining eligibility time"
attr unit s
vector 149 TrainTopology.switch3.eth[1].macLayer.queue.transmissionSelectionAlgorithm[0] gateState:vector ETV
attr enum CLOSED,OPEN
attr interpolationmode sample-hold
attr moduledisplaypath TrainTopology.switch3.eth[1].macLayer.queue.besteffort
attr recordingmode vector
attr source gateStateChanged
attr title "gate state"
attr type enum
vector 150 TrainTopology.switch3.eth[1].macLayer.queue.transmissionSelectionAlgorithm[0] remainingEligibilityTime:vector ETV
attr interpolationmode linear
attr moduledisplaypath TrainTopology.switch3.eth[1].macLayer.queue.besteffort
attr recordingmode vector
attr source remainingEligibilityTimeChanged
attr title "remaining eligibility time"
attr unit s
vector 151 TrainTopology.switch3.eth[1].macLayer.queue.transmissionSelectionAlgorithm[1] gateState:vector ETV
attr enum CLOSED,OPEN
attr interpolationmode sample-hold
attr moduledisplaypath TrainTopology.switch3.eth[1].macLayer.queue.video
attr recordingmode vector
attr source gateStateChanged
attr title "gate state"
attr type enum
vector 152 TrainTopology.switch3.eth[1].macLayer.queue.transmissionSelectionAlgorithm[1] remainingEligibilityTime:vector ETV
attr interpolationmode linear
attr moduledisplaypath TrainTopology.switch3.eth[1].macLayer.queue.video
attr recordingmode vector
attr source remainingEligibilityTimeChanged
attr title "remaining eligibility time"
attr unit s
vector 153 TrainTopology.switch3.eth[2].macLayer.queue.transmissionSelectionAlgorithm[0] gateState:vector ETV
attr enum CLOSED,OPEN
attr interpolationmode sample-hold
attr moduledisplaypath TrainTopology.switch3.eth[2].macLayer.queue.besteffort
attr recordingmode vector
attr source gateStateChanged
attr title "gate state"
attr type enum
vector 154 TrainTopology.switch3.eth[2].macLayer.queue.transmissionSelectionAlgorithm[0] remainingEligibilityTime:vector ETV
attr interpolationmode linear
attr moduledisplaypath TrainTopology.switch3.eth[2].macLayer.queue.besteffort
attr recordingmode vector
attr source remainingEligibilityTimeChanged
attr title "remaining eligibility time"
attr unit s
vector 155 TrainTopology.switch3.eth[2].macLayer.queue.transmissionSelectionAlgorithm[1] gateState:vector ETV
attr enum CLOSED,OPEN
attr interpolationmode sample-hold
attr moduledisplaypath TrainTopology.switch3.eth[2].macLayer.queue.video
attr recordingmode vector
attr source gateStateChanged
attr title "gate state"
attr type enum
vector 156 TrainTopology.switch3.eth[2].macLayer.queue.transmissionSelectionAlgorithm[1] remainingEligibilityTime:vector ETV
attr interpolationmode linear
attr moduledisplaypath TrainTopology.switch3.eth[2].macLayer.queue.video
attr recordingmode vector
attr source remainingEligibilityTimeChanged
attr title "remaining eligibility time"
attr unit s
vector 157 TrainTopology.switch1.bridging.streamFilter.ingress.gate[0] gateState:vector ETV
attr enum CLOSED,OPEN
attr interpolationmode sample-hold
attr moduledisplaypath TrainTopology.switch1.bridging.streamFilter.ingress.besteffort
attr recordingmode vector
attr source gateStateChanged
attr title "gate state"
attr type enum
vector 158 TrainTopology.switch1.bridging.streamFilter.ingress.gate[1] gateState:vector ETV
attr enum CLOSED,OPEN
attr interpolationmode sample-hold
attr moduledisplaypath TrainTopology.switch1.bridging.streamFilter.ingress.video
attr recordingmode vector
attr source gateStateChanged
attr title "gate state"
attr type enum
vector 159 TrainTopology.switch1.eth[0].macLayer.queue.transmissionGate[0] gateState:vector ETV
attr enum CLOSED,OPEN
attr interpolationmode sample-hold
attr moduledisplaypath TrainTopology.switch1.eth[0].macLayer.queue.besteffort
attr recordingmode vector
attr source gateStateChanged
attr title "gate state"
attr type enum
vector 160 TrainTopology.switch1.eth[0].macLayer.queue.transmissionGate[0] guardBandState:vector ETV
attr enum ON,OFF
attr interpolationmode sample-hold
attr moduledisplaypath TrainTopology.switch1.eth[0].macLayer.queue.besteffort
attr recordingmode vector
attr source guardBandStateChanged
attr title "guard band state"
attr type enum
vector 161 TrainTopology.switch1.eth[0].macLayer.queue.transmissionGate[1] gateState:vector ETV
attr enum CLOSED,OPEN
attr interpolationmode sample-hold
attr moduledisplaypath TrainTopology.switch1.eth[0].macLayer.queue.video
attr recordingmode vector
attr source gateStateChanged
attr title "gate state"
attr type enum
vector 162 TrainTopology.switch1.eth[0].macLayer.queue.transmissionGate[1] guardBandState:vector ETV
attr enum ON,OFF
attr interpolationmode sample-hold
attr moduledisplaypath TrainTopology.switch1.eth[0].macLayer.queue.video
attr recordingmode vector
attr source guardBandStateChanged
attr title "guard band state"
attr type enum
vector 163 TrainTopology.switch1.eth[1].macLayer.queue.transmissionGate[0] gateState:vector ETV
attr enum CLOSED,OPEN
attr interpolationmode sample-hold
attr moduledisplaypath TrainTopology.switch1.eth[1].macLayer.queue.besteffort
attr recordingmode vector
attr source gateStateChanged
attr title "gate state"
attr type enum
vector 164 TrainTopology.switch1.eth[1].macLayer.queue.transmissionGate[0] guardBandState:vector ETV
attr enum ON,OFF
attr interpolationmode sample-hold
attr moduledisplaypath TrainTopology.switch1.eth[1].macLayer.queue.besteffort
attr recordingmode vector
attr source guardBandStateChanged
attr title "guard band state"
attr type enum
vector 165 TrainTopology.switch1.eth[1].macLayer.queue.transmissionGate[1] gateState:vector ETV
attr enum CLOSED,OPEN
attr interpolationmode sample-hold
attr moduledisplaypath TrainTopology.switch1.eth[1].macLayer.queue.video
attr recordingmode vector
attr source gateStateChanged
attr title "gate state"
attr type enum
vector 166 TrainTopology.switch1.eth[1].macLayer.queue.transmissionGate[1] guardBandState:vector ETV
attr enum ON,OFF
attr interpolationmode sample-hold
attr moduledisplaypath TrainTopology.switch1.eth[1].macLayer.queue.video
attr recordingmode vector
attr source guardBandStateChanged
attr title "guard band state"
attr type enum
vector 167 TrainTopology.switch2.bridging.streamFilter.ingress.gate[0] gateState:vector ETV
attr enum CLOSED,OPEN
attr interpolationmode sample-hold
attr moduledisplaypath TrainTopology.switch2.bridging.streamFilter.ingress.besteffort
attr recordingmode vector
attr source gateStateChanged
attr title "gate state"
attr type enum
vector 168 TrainTopology.switch2.bridging.streamFilter.ingress.gate[1] gateState:vector ETV
attr enum CLOSED,OPEN
attr interpolationmode sample-hold
attr moduledisplaypath TrainTopology.switch2.bridging.streamFilter.ingress.video
attr recordingmode vector
attr source gateStateChanged
attr title "gate state"
attr type enum
vector 169 TrainTopology.switch2.eth[0].macLayer.queue.transmissionGate[0] gateState:vector ETV
attr enum CLOSED,OPEN
attr interpolationmode sample-hold
attr moduledisplaypath TrainTopology.switch2.eth[0].macLayer.queue.besteffort
attr recordingmode vector
attr source gateStateChanged
attr title "gate state"
attr type enum
vector 170 TrainTopology.switch2.eth[0].macLayer.queue.transmissionGate[0] guardBandState:vector ETV
attr enum ON,OFF
attr interpolationmode sample-hold
attr moduledisplaypath TrainTopology.switch2.eth[0].macLayer.queue.besteffort
attr recordingmode vector
attr source guardBandStateChanged
attr title "guard band state"
attr type enum
vector 171 TrainTopology.switch2.eth[0].macLayer.queue.transmissionGate[1] gateState:vector ETV
attr enum CLOSED,OPEN
attr interpolationmode sample-hold
attr moduledisplaypath TrainTopology.switch2.eth[0].macLayer.queue.video
attr recordingmode vector
attr source gateStateChanged
attr title "gate state"
attr type enum
vector 172 TrainTopology.switch2.eth[0].macLayer.queue.transmissionGate[1] guardBandState:vector ETV
attr enum ON,OFF
attr interpolationmode sample-hold
attr moduledisplaypath TrainTopology.switch2.eth[0].macLayer.queue.video
attr recordingmode vector
attr source guardBandStateChanged
attr title "guard band state"
attr type enum
vector 173 TrainTopology.switch2.eth[1].macLayer.queue.transmissionGate[0] gateState:vector ETV
attr enum CLOSED,OPEN
attr interpolationmode sample-hold
attr moduledisplaypath TrainTopology.switch2.eth[1].macLayer.queue.besteffort
attr recordingmode vector
attr source gateStateChanged
attr title "gate state"
attr type enum
vector 174 TrainTopology.switch2.eth[1].macLayer.queue.transmissionGate[0] guardBandState:vector ETV
attr enum ON,OFF
attr interpolationmode sample-hold
attr moduledisplaypath TrainTopology.switch2.eth[1].macLayer.queue.besteffort
attr recordingmode vector
attr source guardBandStateChanged
attr title "guard band state"
attr type enum
vector 175 TrainTopology.switch2.eth[1].macLayer.queue.transmissionGate[1] gateState:vector ETV
attr enum CLOSED,OPEN
attr interpolationmode sample-hold
attr moduledisplaypath TrainTopology.switch2.eth[1].macLayer.queue.video
attr recordingmode vector
attr source gateStateChanged
attr title "gate state"
attr type enum
vector 176 TrainTopology.switch2.eth[1].macLayer.queue.transmissionGate[1] guardBandState:vector ETV
attr enum ON,OFF
attr interpolationmode sample-hold
attr moduledisplaypath TrainTopology.switch2.eth[1].macLayer.queue.video
attr recordingmode vector
attr source guardBandStateChanged
attr title "guard band state"
attr type enum
vector 177 TrainTopology.switch3.bridging.streamFilter.ingress.gate[0] gateState:vector ETV
attr enum CLOSED,OPEN
attr interpolationmode sample-hold
attr moduledisplaypath TrainTopology.switch3.bridging.streamFilter.ingress.besteffort
attr recordingmode vector
attr source gateStateChanged
attr title "gate state"
attr type enum
vector 178 TrainTopology.switch3.bridging.streamFilter.ingress.gate[1] gateState:vector ETV
attr enum CLOSED,OPEN
attr interpolationmode sample-hold
attr moduledisplaypath TrainTopology.switch3.bridging.streamFilter.ingress.video
attr recordingmode vector
attr source gateStateChanged
attr title "gate state"
attr type enum
vector 179 TrainTopology.switch3.eth[0].macLayer.queue.transmissionGate[0] gateState:vector ETV
attr enum CLOSED,OPEN
attr interpolationmode sample-hold
attr moduledisplaypath TrainTopology.switch3.eth[0].macLayer.queue.besteffort
attr recordingmode vector
attr source gateStateChanged
attr title "gate state"
attr type enum
vector 180 TrainTopology.switch3.eth[0].macLayer.queue.transmissionGate[0] guardBandState:vector ETV
attr enum ON,OFF
attr interpolationmode sample-hold
attr moduledisplaypath TrainTopology.switch3.eth[0].macLayer.queue.besteffort
attr recordingmode vector
attr source guardBandStateChanged
attr title "guard band state"
attr type enum
vector 181 TrainTopology.switch3.eth[0].macLayer.queue.transmissionGate[1] gateState:vector ETV
attr enum CLOSED,OPEN
attr interpolationmode sample-hold
attr moduledisplaypath TrainTopology.switch3.eth[0].macLayer.queue.video
attr recordingmode vector
attr source gateStateChanged
attr title "gate state"
attr type enum
vector 182 TrainTopology.switch3.eth[0].macLayer.queue.transmissionGate[1] guardBandState:vector ETV
attr enum ON,OFF
attr interpolationmode sample-hold
attr moduledisplaypath TrainTopology.switch3.eth[0].macLayer.queue.video
attr recordingmode vector
attr source guardBandStateChanged
attr title "guard band state"
attr type enum
vector 183 TrainTopology.switch3.eth[1].macLayer.queue.transmissionGate[0] gateState:vector ETV
attr enum CLOSED,OPEN
attr interpolationmode sample-hold
attr moduledisplaypath TrainTopology.switch3.eth[1].macLayer.queue.besteffort
attr recordingmode vector
attr source gateStateChanged
attr title "gate state"
attr type enum
vector 184 TrainTopology.switch3.eth[1].macLayer.queue.transmissionGate[0] guardBandState:vector ETV
attr enum ON,OFF
attr interpolationmode sample-hold
attr moduledisplaypath TrainTopology.switch3.eth[1].macLayer.queue.besteffort
attr recordingmode vector
attr source guardBandStateChanged
attr title "guard band state"
attr type enum
vector 185 TrainTopology.switch3.eth[1].macLayer.queue.transmissionGate[1] gateState:vector ETV
attr enum CLOSED,OPEN
attr interpolationmode sample-hold
attr moduledisplaypath TrainTopology.switch3.eth[1].macLayer.queue.video
attr recordingmode vector
attr source gateStateChanged
attr title "gate state"
attr type enum
vector 186 TrainTopology.switch3.eth[1].macLayer.queue.transmissionGate[1] guardBandState:vector ETV
attr enum ON,OFF
attr interpolationmode sample-hold
attr moduledisplaypath TrainTopology.switch3.eth[1].macLayer.queue.video
attr recordingmode vector
attr source guardBandStateChanged
attr title "guard band state"
attr type enum
vector 187 TrainTopology.switch3.eth[2].macLayer.queue.transmissionGate[0] gateState:vector ETV
attr enum CLOSED,OPEN
attr interpolationmode sample-hold
attr moduledisplaypath TrainTopology.switch3.eth[2].macLayer.queue.besteffort
attr recordingmode vector
attr source gateStateChanged
attr title "gate state"
attr type enum
vector 188 TrainTopology.switch3.eth[2].macLayer.queue.transmissionGate[0] guardBandState:vector ETV
attr enum ON,OFF
attr interpolationmode sample-hold
attr moduledisplaypath TrainTopology.switch3.eth[2].macLayer.queue.besteffort
attr recordingmode vector
attr source guardBandStateChanged
attr title "guard band state"
attr type enum
vector 189 TrainTopology.switch3.eth[2].macLayer.queue.transmissionGate[1] gateState:vector ETV
attr enum CLOSED,OPEN
attr interpolationmode sample-hold
attr moduledisplaypath TrainTopology.switch3.eth[2].macLayer.queue.video
attr recordingmode vector
attr source gateStateChanged
attr title "gate state"
attr type enum
vector 190 TrainTopology.switch3.eth[2].macLayer.queue.transmissionGate[1] guardBandState:vector ETV
attr enum ON,OFF
attr interpolationmode sample-hold
attr moduledisplaypath TrainTopology.switch3.eth[2].macLayer.queue.video
attr recordingmode vector
attr source guardBandStateChanged
attr title "guard band state"
attr type enum
vector 191 TrainTopology.gnb1.sctp "Throughput of Association 46" ETV
vector 192 TrainTopology.gnb2.sctp "Throughput of Association 47" ETV
vector 193 TrainTopology.gnb1.sctp "Throughput of Association 7" ETV
vector 194 TrainTopology.gnb1.sctp "Fast Recovery State 7:10.0.0.34" ETV
vector 195 TrainTopology.gnb2.sctp "Throughput of Association 11" ETV
vector 196 TrainTopology.gnb2.sctp "Fast Recovery State 11:10.0.0.33" ETV
vector 197 TrainTopology.gnb1.x2ppp[0].queue incomingPacketLengths:vector ETV
attr interpolationmode none
attr recordingmode vector
attr source packetLength(packetPushStarted)
attr title "incoming packet lengths"
attr unit b
vector 198 TrainTopology.gnb1.x2ppp[0].queue queueingTime:vector ETV
attr interpolationmode none
attr recordingmode vector
attr source queueingTime(packetPulled)
attr title "queueing times"
attr unit s
vector 199 TrainTopology.gnb1.x2ppp[0].queue outgoingPacketLengths:vector ETV
attr interpolationmode none
attr recordingmode vector
attr source packetLength(packetPulled)
attr title "outgoing packet lengths"
attr unit b
vector 200 TrainTopology.gnb1.x2ppp[0].ppp rcvdPkFromHl:vector(packetBytes) ETV
attr interpolationmode none
attr recordingmode vector(packetBytes)
attr source packetReceivedFromUpper
attr title "packets received from higher layer, packetBytes"
vector 201 TrainTopology.gnb1.x2ppp[0].ppp txPk:vector(packetBytes) ETV
attr interpolationmode none
attr recordingmode vector(packetBytes)
attr source packetSentToLower
attr title "packets transmitted, packetBytes"
vector 202 TrainTopology.gnb1.x2ppp[0].queue queueLength:vector ETV
attr autoWarmupFilter false
attr interpolationmode sample-hold
attr recordingmode vector
attr source "warmup(atomic(constant0(packetPushEnded) + count(packetPushStarted) - count(packetPulled) - count(packetRemoved) - count(packetDropped)))"
attr title "queue length"
attr unit pk
vector 203 TrainTopology.gnb1.x2ppp[0].queue queueBitLength:vector ETV
attr autoWarmupFilter false
attr interpolationmode sample-hold
attr recordingmode vector
attr source "warmup(atomic(constant0(packetPushEnded) + sum(packetLength(packetPushStarted)) - sum(packetLength(packetPulled)) - sum(packetLength(packetRemoved)) - sum(packetLength(packetDropped))))"
attr title "queue bit length"
attr unit b
vector 204 TrainTopology.gnb2.x2ppp[0].queue incomingPacketLengths:vector ETV
attr interpolationmode none
attr recordingmode vector
attr source packetLength(packetPushStarted)
attr title "incoming packet lengths"
attr unit b
vector 205 TrainTopology.gnb2.x2ppp[0].queue queueingTime:vector ETV
attr interpolationmode none
attr recordingmode vector
attr source queueingTime(packetPulled)
attr title "queueing times"
attr unit s
vector 206 TrainTopology.gnb2.x2ppp[0].queue outgoingPacketLengths:vector ETV
attr interpolationmode none
attr recordingmode vector
attr source packetLength(packetPulled)
attr title "outgoing packet lengths"
attr unit b
vector 207 TrainTopology.gnb2.x2ppp[0].ppp rcvdPkFromHl:vector(packetBytes) ETV
attr interpolationmode none
attr recordingmode vector(packetBytes)
attr source packetReceivedFromUpper
attr title "packets received from higher layer, packetBytes"
vector 208 TrainTopology.gnb2.x2ppp[0].ppp txPk:vector(packetBytes) ETV
attr interpolationmode none
attr recordingmode vector(packetBytes)
attr source packetSentToLower
attr title "packets transmitted, packetBytes"
vector 209 TrainTopology.gnb2.x2ppp[0].queue queueLength:vector ETV
attr autoWarmupFilter false
attr interpolationmode sample-hold
attr recordingmode vector
attr source "warmup(atomic(constant0(packetPushEnded) + count(packetPushStarted) - count(packetPulled) - count(packetRemoved) - count(packetDropped)))"
attr title "queue length"
attr unit pk
vector 210 TrainTopology.gnb2.x2ppp[0].queue queueBitLength:vector ETV
attr autoWarmupFilter false
attr interpolationmode sample-hold
attr recordingmode vector
attr source "warmup(atomic(constant0(packetPushEnded) + sum(packetLength(packetPushStarted)) - sum(packetLength(packetPulled)) - sum(packetLength(packetRemoved)) - sum(packetLength(packetDropped))))"
attr title "queue bit length"
attr unit b
vector 211 TrainTopology.gnb2.x2ppp[0].ppp rxPkOk:vector(packetBytes) ETV
attr interpolationmode none
attr recordingmode vector(packetBytes)
attr source rxPkOk
attr title "packets received OK, packetBytes"
vector 212 TrainTopology.gnb2.x2ppp[0].ppp passedUpPk:vector(packetBytes) ETV
attr interpolationmode none
attr recordingmode vector(packetBytes)
attr source packetSentToUpper
attr title "packets passed to higher layer, packetBytes"
vector 213 TrainTopology.gnb1.x2ppp[0].ppp rxPkOk:vector(packetBytes) ETV
attr interpolationmode none
attr recordingmode vector(packetBytes)
attr source rxPkOk
attr title "packets received OK, packetBytes"
vector 214 TrainTopology.gnb1.x2ppp[0].ppp passedUpPk:vector(packetBytes) ETV
attr interpolationmode none
attr recordingmode vector(packetBytes)
attr source packetSentToUpper
attr title "packets passed to higher layer, packetBytes"
vector 215 TrainTopology.gnb2.sctp "Throughput of Association 47" ETV
vector 216 TrainTopology.gnb2.sctp "Peer Rwnd 47" ETV
vector 217 TrainTopology.gnb2.sctp "Fast Recovery State 48:10.0.0.17" ETV
vector 218 TrainTopology.gnb2.sctp "Fast Recovery State 48:10.0.0.10" ETV
vector 219 TrainTopology.gnb2.sctp "Fast Recovery State 48:10.0.0.33" ETV
vector 220 TrainTopology.gnb2.sctp "Fast Recovery State 48:10.0.0.37" ETV
vector 221 TrainTopology.gnb1.sctp "Throughput of Association 46" ETV
vector 222 TrainTopology.gnb1.sctp "Peer Rwnd 46" ETV
vector 223 TrainTopology.gnb1.sctp "Fast Recovery State 49:10.0.0.18" ETV
vector 224 TrainTopology.gnb1.sctp "Fast Recovery State 49:10.0.0.14" ETV
vector 225 TrainTopology.gnb1.sctp "Fast Recovery State 49:10.0.0.34" ETV
vector 226 TrainTopology.gnb1.sctp "Fast Recovery State 49:10.0.0.41" ETV
vector 227 TrainTopology.gnb1.sctp "Peer Rwnd 7" ETV
vector 228 TrainTopology.gnb1.sctp "Fast Recovery State 7:10.0.0.18" ETV
vector 229 TrainTopology.gnb1.sctp "Fast Recovery State 7:10.0.0.14" ETV
vector 230 TrainTopology.gnb1.sctp "Fast Recovery State 7:10.0.0.41" ETV
vector 231 TrainTopology.gnb2.sctp "Peer Rwnd 11" ETV
vector 232 TrainTopology.gnb2.sctp "Fast Recovery State 11:10.0.0.17" ETV
vector 233 TrainTopology.gnb2.sctp "Fast Recovery State 11:10.0.0.10" ETV
vector 234 TrainTopology.gnb2.sctp "Fast Recovery State 11:10.0.0.37" ETV
vector 235 TrainTopology.gnb2.sctp "Slow Start Threshold 48:10.0.0.10" ETV
vector 236 TrainTopology.gnb2.sctp "Congestion Window 48:10.0.0.10" ETV
vector 237 TrainTopology.gnb2.sctp "Bandwidth 48:10.0.0.10" ETV
vector 238 TrainTopology.gnb2.sctp "HB Sent 48:10.0.0.10" ETV
vector 239 TrainTopology.gnb2.sctp "RTO 48:10.0.0.10" ETV
vector 240 TrainTopology.gnb2.sctp "Slow Start Threshold 48:10.0.0.17" ETV
vector 241 TrainTopology.gnb2.sctp "Congestion Window 48:10.0.0.17" ETV
vector 242 TrainTopology.gnb2.sctp "Bandwidth 48:10.0.0.17" ETV
vector 243 TrainTopology.gnb2.sctp "HB Sent 48:10.0.0.17" ETV
vector 244 TrainTopology.gnb2.sctp "RTO 48:10.0.0.17" ETV
vector 245 TrainTopology.gnb2.sctp "Slow Start Threshold 48:10.0.0.33" ETV
vector 246 TrainTopology.gnb2.sctp "Congestion Window 48:10.0.0.33" ETV
vector 247 TrainTopology.gnb2.sctp "Bandwidth 48:10.0.0.33" ETV
vector 248 TrainTopology.gnb2.sctp "RTO 48:10.0.0.33" ETV
vector 249 TrainTopology.gnb2.sctp "Slow Start Threshold 48:10.0.0.37" ETV
vector 250 TrainTopology.gnb2.sctp "Congestion Window 48:10.0.0.37" ETV
vector 251 TrainTopology.gnb2.sctp "Bandwidth 48:10.0.0.37" ETV
vector 252 TrainTopology.gnb2.sctp "HB Sent 48:10.0.0.37" ETV
vector 253 TrainTopology.gnb2.sctp "RTO 48:10.0.0.37" ETV
vector 254 TrainTopology.gnb1.sctp "Slow Start Threshold 49:10.0.0.14" ETV
vector 255 TrainTopology.gnb1.sctp "Congestion Window 49:10.0.0.14" ETV
vector 256 TrainTopology.gnb1.sctp "Bandwidth 49:10.0.0.14" ETV
vector 257 TrainTopology.gnb1.sctp "HB Sent 49:10.0.0.14" ETV
vector 258 TrainTopology.gnb1.sctp "RTO 49:10.0.0.14" ETV
vector 259 TrainTopology.gnb1.sctp "Slow Start Threshold 49:10.0.0.18" ETV
vector 260 TrainTopology.gnb1.sctp "Congestion Window 49:10.0.0.18" ETV
vector 261 TrainTopology.gnb1.sctp "Bandwidth 49:10.0.0.18" ETV
vector 262 TrainTopology.gnb1.sctp "HB Sent 49:10.0.0.18" ETV
vector 263 TrainTopology.gnb1.sctp "RTO 49:10.0.0.18" ETV
vector 264 TrainTopology.gnb1.sctp "Slow Start Threshold 49:10.0.0.34" ETV
vector 265 TrainTopology.gnb1.sctp "Congestion Window 49:10.0.0.34" ETV
vector 266 TrainTopology.gnb1.sctp "Bandwidth 49:10.0.0.34" ETV
vector 267 TrainTopology.gnb1.sctp "RTO 49:10.0.0.34" ETV
vector 268 TrainTopology.gnb1.sctp "Slow Start Threshold 49:10.0.0.41" ETV
vector 269 TrainTopology.gnb1.sctp "Congestion Window 49:10.0.0.41" ETV
vector 270 TrainTopology.gnb1.sctp "Bandwidth 49:10.0.0.41" ETV
vector 271 TrainTopology.gnb1.sctp "HB Sent 49:10.0.0.41" ETV
vector 272 TrainTopology.gnb1.sctp "RTO 49:10.0.0.41" ETV
vector 273 TrainTopology.gnb1.sctp "HB ACK Sent 7:10.0.0.34" ETV
vector 274 TrainTopology.gnb1.sctp "HB Received 7:10.0.0.34" ETV
vector 275 TrainTopology.gnb2.sctp "HB ACK Sent 11:10.0.0.33" ETV
vector 276 TrainTopology.gnb2.sctp "HB Received 11:10.0.0.33" ETV
vector 277 TrainTopology.gnb1.sctp "Slow Start Threshold 7:10.0.0.14" ETV
vector 278 TrainTopology.gnb1.sctp "Congestion Window 7:10.0.0.14" ETV
vector 279 TrainTopology.gnb1.sctp "Bandwidth 7:10.0.0.14" ETV
vector 280 TrainTopology.gnb1.sctp "HB Sent 7:10.0.0.14" ETV
vector 281 TrainTopology.gnb1.sctp "RTO 7:10.0.0.14" ETV
vector 282 TrainTopology.gnb1.sctp "Slow Start Threshold 7:10.0.0.18" ETV
vector 283 TrainTopology.gnb1.sctp "Congestion Window 7:10.0.0.18" ETV
vector 284 TrainTopology.gnb1.sctp "Bandwidth 7:10.0.0.18" ETV
vector 285 TrainTopology.gnb1.sctp "HB Sent 7:10.0.0.18" ETV
vector 286 TrainTopology.gnb1.sctp "RTO 7:10.0.0.18" ETV
vector 287 TrainTopology.gnb1.sctp "Slow Start Threshold 7:10.0.0.34" ETV
vector 288 TrainTopology.gnb1.sctp "Congestion Window 7:10.0.0.34" ETV
vector 289 TrainTopology.gnb1.sctp "Bandwidth 7:10.0.0.34" ETV
vector 290 TrainTopology.gnb1.sctp "RTO 7:10.0.0.34" ETV
vector 291 TrainTopology.gnb1.sctp "Slow Start Threshold 7:10.0.0.41" ETV
vector 292 TrainTopology.gnb1.sctp "Congestion Window 7:10.0.0.41" ETV
vector 293 TrainTopology.gnb1.sctp "Bandwidth 7:10.0.0.41" ETV
vector 294 TrainTopology.gnb1.sctp "HB Sent 7:10.0.0.41" ETV
vector 295 TrainTopology.gnb1.sctp "RTO 7:10.0.0.41" ETV
vector 296 TrainTopology.gnb2.sctp "Slow Start Threshold 11:10.0.0.10" ETV
vector 297 TrainTopology.gnb2.sctp "Congestion Window 11:10.0.0.10" ETV
vector 298 TrainTopology.gnb2.sctp "Bandwidth 11:10.0.0.10" ETV
vector 299 TrainTopology.gnb2.sctp "HB Sent 11:10.0.0.10" ETV
vector 300 TrainTopology.gnb2.sctp "RTO 11:10.0.0.10" ETV
vector 301 TrainTopology.gnb2.sctp "Slow Start Threshold 11:10.0.0.17" ETV
vector 302 TrainTopology.gnb2.sctp "Congestion Window 11:10.0.0.17" ETV
vector 303 TrainTopology.gnb2.sctp "Bandwidth 11:10.0.0.17" ETV
vector 304 TrainTopology.gnb2.sctp "HB Sent 11:10.0.0.17" ETV
vector 305 TrainTopology.gnb2.sctp "RTO 11:10.0.0.17" ETV
vector 306 TrainTopology.gnb2.sctp "Slow Start Threshold 11:10.0.0.33" ETV
vector 307 TrainTopology.gnb2.sctp "Congestion Window 11:10.0.0.33" ETV
vector 308 TrainTopology.gnb2.sctp "Bandwidth 11:10.0.0.33" ETV
vector 309 TrainTopology.gnb2.sctp "RTO 11:10.0.0.33" ETV
vector 310 TrainTopology.gnb2.sctp "Slow Start Threshold 11:10.0.0.37" ETV
vector 311 TrainTopology.gnb2.sctp "Congestion Window 11:10.0.0.37" ETV
vector 312 TrainTopology.gnb2.sctp "Bandwidth 11:10.0.0.37" ETV
vector 313 TrainTopology.gnb2.sctp "HB Sent 11:10.0.0.37" ETV
vector 314 TrainTopology.gnb2.sctp "RTO 11:10.0.0.37" ETV
vector 315 TrainTopology.gnb1.sctp "HB ACK Received 49:10.0.0.34" ETV
vector 316 TrainTopology.gnb1.sctp "RTT 49:10.0.0.34" ETV
vector 317 TrainTopology.gnb2.sctp "HB ACK Received 48:10.0.0.33" ETV
vector 318 TrainTopology.gnb2.sctp "RTT 48:10.0.0.33" ETV
vector 319 TrainTopology.gnb1.sctp "HB ACK Sent 49:10.0.0.34" ETV
vector 320 TrainTopology.gnb1.sctp "HB Received 49:10.0.0.34" ETV
vector 321 TrainTopology.gnb2.sctp "HB ACK Sent 48:10.0.0.33" ETV
vector 322 TrainTopology.gnb2.sctp "HB Received 48:10.0.0.33" ETV
vector 323 TrainTopology.gnb1.sctp "HB ACK Received 7:10.0.0.34" ETV
vector 324 TrainTopology.gnb1.sctp "RTT 7:10.0.0.34" ETV
vector 325 TrainTopology.gnb2.sctp "HB ACK Received 11:10.0.0.33" ETV
vector 326 TrainTopology.gnb2.sctp "RTT 11:10.0.0.33" ETV
vector 327 TrainTopology.gnb1.cellularNic.mac avgServedBlocksUl:vector ETV
attr recordingmode vector
attr source avgServedBlocksUl
attr title "Avg Served Blocks Ul"
attr unit blocks
vector 328 TrainTopology.gnb1.cellularNic.mac avgServedBlocksDl:vector ETV
attr recordingmode vector
attr source avgServedBlocksDl
attr title "Avg Served Blocks Dl"
attr unit blocks
vector 329 TrainTopology.gnb2.cellularNic.mac avgServedBlocksUl:vector ETV
attr recordingmode vector
attr source avgServedBlocksUl
attr title "Avg Served Blocks Ul"
attr unit blocks
vector 330 TrainTopology.gnb2.cellularNic.mac avgServedBlocksDl:vector ETV
attr recordingmode vector
attr source avgServedBlocksDl
attr title "Avg Served Blocks Dl"
attr unit blocks
vector 331 TrainTopology.TCUUe[0].cellularNic.nrChannelModel[0] measuredSinrUl:vector ETV
attr recordingmode vector
attr source measuredSinrUl
attr title "SINR measured at feedback computation, UL"
attr unit dB
vector 332 TrainTopology.TCUUe[0].cellularNic.nrChannelModel[0] measuredSinrDl:vector ETV
attr recordingmode vector
attr source measuredSinrDl
attr title "SINR measured at feedback computation, DL"
attr unit dB
vector 333 TrainTopology.gnb1.cellularNic.mac receivedPacketFromLowerLayer:vector(packetBytes) ETV
attr interpolationmode none
attr recordingmode vector(packetBytes)
attr source receivedPacketFromLowerLayer
vector 334 TrainTopology.TCUUe[1].cellularNic.nrChannelModel[0] measuredSinrUl:vector ETV
attr recordingmode vector
attr source measuredSinrUl
attr title "SINR measured at feedback computation, UL"
attr unit dB
vector 335 TrainTopology.TCUUe[1].cellularNic.nrChannelModel[0] measuredSinrDl:vector ETV
attr recordingmode vector
attr source measuredSinrDl
attr title "SINR measured at feedback computation, DL"
attr unit dB
vector 336 TrainTopology.TCUUe[2].cellularNic.nrChannelModel[0] measuredSinrUl:vector ETV
attr recordingmode vector
attr source measuredSinrUl
attr title "SINR measured at feedback computation, UL"
attr unit dB
vector 337 TrainTopology.TCUUe[2].cellularNic.nrChannelModel[0] measuredSinrDl:vector ETV
attr recordingmode vector
attr source measuredSinrDl
attr title "SINR measured at feedback computation, DL"
attr unit dB
vector 338 TrainTopology.gnb2.cellularNic.mac receivedPacketFromLowerLayer:vector(packetBytes) ETV
attr interpolationmode none
attr recordingmode vector(packetBytes)
attr source receivedPacketFromLowerLayer
vector 339 TrainTopology.TCUUe[3].cellularNic.nrChannelModel[0] measuredSinrUl:vector ETV
attr recordingmode vector
attr source measuredSinrUl
attr title "SINR measured at feedback computation, UL"
attr unit dB
vector 340 TrainTopology.TCUUe[3].cellularNic.nrChannelModel[0] measuredSinrDl:vector ETV
attr recordingmode vector
attr source measuredSinrDl
attr title "SINR measured at feedback computation, DL"
attr unit dB
vector 341 TrainTopology.BCUUe[0].cellularNic.nrChannelModel[0] measuredSinrUl:vector ETV
attr recordingmode vector
attr source measuredSinrUl
attr title "SINR measured at feedback computation, UL"
attr unit dB
vector 342 TrainTopology.BCUUe[0].cellularNic.nrChannelModel[0] measuredSinrDl:vector ETV
attr recordingmode vector
attr source measuredSinrDl
attr title "SINR measured at feedback computation, DL"
attr unit dB
vector 343 TrainTopology.BCUUe[1].cellularNic.nrChannelModel[0] measuredSinrUl:vector ETV
attr recordingmode vector
attr source measuredSinrUl
attr title "SINR measured at feedback computation, UL"
attr unit dB
vector 344 TrainTopology.BCUUe[1].cellularNic.nrChannelModel[0] measuredSinrDl:vector ETV
attr recordingmode vector
attr source measuredSinrDl
attr title "SINR measured at feedback computation, DL"
attr unit dB
vector 345 TrainTopology.BCUUe[2].cellularNic.nrChannelModel[0] measuredSinrUl:vector ETV
attr recordingmode vector
attr source measuredSinrUl
attr title "SINR measured at feedback computation, UL"
attr unit dB
vector 346 TrainTopology.BCUUe[2].cellularNic.nrChannelModel[0] measuredSinrDl:vector ETV
attr recordingmode vector
attr source measuredSinrDl
attr title "SINR measured at feedback computation, DL"
attr unit dB
vector 347 TrainTopology.BCUUe[3].cellularNic.nrChannelModel[0] measuredSinrUl:vector ETV
attr recordingmode vector
attr source measuredSinrUl
attr title "SINR measured at feedback computation, UL"
attr unit dB
vector 348 TrainTopology.BCUUe[3].cellularNic.nrChannelModel[0] measuredSinrDl:vector ETV
attr recordingmode vector
attr source measuredSinrDl
attr title "SINR measured at feedback computation, DL"
attr unit dB
vector 349 TrainTopology.TCUClient[0].app[0] packetSent:vector(packetBytes) ETV
attr interpolationmode none
attr moduledisplaypath TrainTopology.TCUClient[0].besteffort
attr recordingmode vector(packetBytes)
attr source packetSent
attr title "packets sent, packetBytes"
vector 350 TrainTopology.TCUClient[1].app[0] packetSent:vector(packetBytes) ETV
attr interpolationmode none
attr moduledisplaypath TrainTopology.TCUClient[1].besteffort
attr recordingmode vector(packetBytes)
attr source packetSent
attr title "packets sent, packetBytes"
vector 351 TrainTopology.TCUClient[2].app[0] packetSent:vector(packetBytes) ETV
attr interpolationmode none
attr moduledisplaypath TrainTopology.TCUClient[2].besteffort
attr recordingmode vector(packetBytes)
attr source packetSent
attr title "packets sent, packetBytes"
vector 352 TrainTopology.TCUClient[3].app[0] packetSent:vector(packetBytes) ETV
attr interpolationmode none
attr moduledisplaypath TrainTopology.TCUClient[3].besteffort
attr recordingmode vector(packetBytes)
attr source packetSent
attr title "packets sent, packetBytes"
vector 353 TrainTopology.TCUClient[0].udp packetSent:vector(packetBytes) ETV
attr interpolationmode none
attr recordingmode vector(packetBytes)
attr source packetSent
attr title "packets sent, packetBytes"
vector 354 TrainTopology.TCUClient[1].udp packetSent:vector(packetBytes) ETV
attr interpolationmode none
attr recordingmode vector(packetBytes)
attr source packetSent
attr title "packets sent, packetBytes"
vector 355 TrainTopology.TCUClient[2].udp packetSent:vector(packetBytes) ETV
attr interpolationmode none
attr recordingmode vector(packetBytes)
attr source packetSent
attr title "packets sent, packetBytes"
vector 356 TrainTopology.TCUClient[3].udp packetSent:vector(packetBytes) ETV
attr interpolationmode none
attr recordingmode vector(packetBytes)
attr source packetSent
attr title "packets sent, packetBytes"
vector 357 TrainTopology.TCUClient[0].bridging.streamIdentifier.identifier incomingPacketLengths:vector ETV
attr interpolationmode none
attr recordingmode vector
attr source "packetLength(merge(packetPushedIn, packetPulledIn))"
attr title "incoming packet lengths"
attr unit b
vector 358 TrainTopology.TCUClient[0].bridging.streamIdentifier.identifier incomingDataRate:vector ETV
attr interpolationmode linear
attr recordingmode vector
attr source "throughput(merge(packetPushedIn, packetPulledIn))"
attr title "incoming data rate"
attr unit bps
vector 359 TrainTopology.TCUClient[0].bridging.streamIdentifier.identifier outgoingPacketLengths:vector ETV
attr interpolationmode none
attr recordingmode vector
attr source "packetLength(merge(packetPushedOut, packetPulledOut))"
attr title "outgoing packet lengths"
attr unit b
vector 360 TrainTopology.TCUClient[0].bridging.streamIdentifier.identifier outgoingDataRate:vector ETV
attr interpolationmode linear
attr recordingmode vector
attr source "throughput(merge(packetPushedOut, packetPulledOut))"
attr title "outgoing data rate"
attr unit bps
vector 361 TrainTopology.TCUClient[0].bridging.streamCoder.encoder incomingPacketLengths:vector ETV
attr interpolationmode none
attr recordingmode vector
attr source "packetLength(merge(packetPushedIn, packetPulledIn))"
attr title "incoming packet lengths"
attr unit b
vector 362 TrainTopology.TCUClient[0].bridging.streamCoder.encoder incomingDataRate:vector ETV
attr interpolationmode linear
attr recordingmode vector
attr source "throughput(merge(packetPushedIn, packetPulledIn))"
attr title "incoming data rate"
attr unit bps
vector 363 TrainTopology.TCUClient[0].bridging.streamCoder.encoder outgoingPacketLengths:vector ETV
attr interpolationmode none
attr recordingmode vector
attr source "packetLength(merge(packetPushedOut, packetPulledOut))"
attr title "outgoing packet lengths"
attr unit b
vector 364 TrainTopology.TCUClient[0].bridging.streamCoder.encoder outgoingDataRate:vector ETV
attr interpolationmode linear
attr recordingmode vector
attr source "throughput(merge(packetPushedOut, packetPulledOut))"
attr title "outgoing data rate"
attr unit bps
vector 365 TrainTopology.TCUClient[0].ieee8021q.qTagHeaderInserter incomingPacketLengths:vector ETV
attr interpolationmode none
attr recordingmode vector
attr source "packetLength(merge(packetPushedIn, packetPulledIn))"
attr title "incoming packet lengths"
attr unit b
vector 366 TrainTopology.TCUClient[0].ieee8021q.qTagHeaderInserter incomingDataRate:vector ETV
attr interpolationmode linear
attr recordingmode vector
attr source "throughput(merge(packetPushedIn, packetPulledIn))"
attr title "incoming data rate"
attr unit bps
vector 367 TrainTopology.TCUClient[0].ieee8021q.qTagHeaderInserter outgoingPacketLengths:vector ETV
attr interpolationmode none
attr recordingmode vector
attr source "packetLength(merge(packetPushedOut, packetPulledOut))"
attr title "outgoing packet lengths"
attr unit b
vector 368 TrainTopology.TCUClient[0].ieee8021q.qTagHeaderInserter outgoingDataRate:vector ETV
attr interpolationmode linear
attr recordingmode vector
attr source "throughput(merge(packetPushedOut, packetPulledOut))"
attr title "outgoing data rate"
attr unit bps
vector 369 TrainTopology.TCUClient[0].ethernet.macHeaderInserter incomingPacketLengths:vector ETV
attr interpolationmode none
attr recordingmode vector
attr source "packetLength(merge(packetPushedIn, packetPulledIn))"
attr title "incoming packet lengths"
attr unit b
vector 370 TrainTopology.TCUClient[0].ethernet.macHeaderInserter incomingDataRate:vector ETV
attr interpolationmode linear
attr recordingmode vector
attr source "throughput(merge(packetPushedIn, packetPulledIn))"
attr title "incoming data rate"
attr unit bps
vector 371 TrainTopology.TCUClient[0].ethernet.macHeaderInserter outgoingPacketLengths:vector ETV
attr interpolationmode none
attr recordingmode vector
attr source "packetLength(merge(packetPushedOut, packetPulledOut))"
attr title "outgoing packet lengths"
attr unit b
vector 372 TrainTopology.TCUClient[0].ethernet.macHeaderInserter outgoingDataRate:vector ETV
attr interpolationmode linear
attr recordingmode vector
attr source "throughput(merge(packetPushedOut, packetPulledOut))"
attr title "outgoing data rate"
attr unit bps
[...]
1407	18784241 13540 294371 440510 6.616 9.996 677 0 0 0 0
1408	18797781 10647 294781 440320 6.625 9.992 507 15 82 20787 1288625
1409	18808428 6760 294785 440276 6.625 9.991 338 1 1 338 338
1410	18815188 10140 294787 440415 6.625 9.995 507 0 0 0 0
1411	18825328 7098 294787 440278 6.625 9.991 338 44 77 20449 1329185
1412	18832426 6760 294791 440282 6.625 9.991 338 1 1 338 338
1413	18839186 10140 294793 440428 6.625 9.995 507 0 0 0 0
1414	18849326 7098 294793 440284 6.625 9.991 338 26 95 20449 1639469
1415	18856424 13520 294797 440370 6.625 9.993 676 1 1 676 676
1416	18869944 16920 294440 440579 6.617 9.997 846 0 0 0 0
1417	18886864 14196 294799 440372 6.625 9.993 676 19 54 21125 782301
1418	18901060 10440 294806 440336 6.625 9.992 522 4 4 2088 8352
1419	18911500 7040 294808 440298 6.625 9.991 352 6 6 2112 12672
1420	18918540 6760 294810 440300 6.625 9.991 338 4 4 1352 5408
1421	18925300 13520 294812 440378 6.625 9.993 676 4 4 2704 10816
1422	18938820 18270 294834 440379 6.626 9.993 522 -4.1214775886818 -1.5764973624653 -988.79626052072 1965.7125395295
1423	18957090 11980 294836 440346 6.626 9.992 352 -2.6069644526951 4.4783551606916 1471.1865014224 6727.2081353133
1424	18969070 12168 294838 440348 6.626 9.992 338 -1.1608559702918 -0.005445236510905 -197.10490394965 227.74714360729
1425	18981238 22984 294840 440407 6.626 9.994 676 3.1166690406438 5.0808718392456 2940.1449212749 13234.29454292
1426	19004222 8102 294888 440409 6.629 9.995 338 0.004 0.016 1.436 0.006728
1427	19012324 6760 294896 440415 6.629 9.995 338 0 0 0 0
1428	19019084 8102 294896 440415 6.629 9.995 338 0.004 0.016 1.436 0.006728
1429	19027186 6760 294896 440415 6.629 9.995 338 0 0 0 0
1430	19033946 8112 294897 440423 6.629 9.995 338 0.004 0.004 1.352 0.005408
1431	19042058 16272 294379 440576 6.616 9.997 678 0.004 0.004 2.712 0.010848
1432	19058330 6760 294904 440428 6.629 9.995 338 0 0 0 0
1433	19065090 8112 294904 440428 6.629 9.995 338 0.004 0.004 1.352 0.005408
1434	19073202 6760 294904 440428 6.629 9.995 338 0 0 0 0
1435	19079962 13560 294382 440579 6.616 9.997 678 0 0 0 0
1436	19093522 16272 294382 440579 6.616 9.997 678 0.004 0.004 2.712 0.010848
1437	19109794 13560 294382 440579 6.616 9.997 678 0 0 0 0
1438	19123354 10011 294403 440606 6.616 9.997 509 0 1 15 15
1439	19133365 10311 294403 440606 6.616 9.997 524 0 1 15 15
1440	19143676 6611 294405 440544 6.616 9.996 339 0 1 12 12
1441	19150287 6891 294405 440544 6.616 9.996 353 0 1 14 14
1442	19157178 6611 294405 440544 6.616 9.996 339 1 3 353 385
1443	19163789 6611 294407 440546 6.616 9.996 339 0 0 0 0
1444	19170400 6611 294407 440546 6.616 9.996 339 0 0 0 0
1445	19177011 6611 294407 440546 6.616 9.996 339 1 1 339 339
1446	19183622 13411 294409 440660 6.616 9.998 679 0 0 0 0
1447	19197033 13411 294409 440660 6.616 9.998 679 0 0 0 0
1448	19210444 13411 294409 440660 6.616 9.998 679 1 1 679 679
1449	19223855 12177 294368 440507 6.616 9.996 508 0.004 0.01 2.122 0.0093880000000001
1450	19236032 10160 294371 440510 6.616 9.996 508 0 0 0 0
1451	19246192 12177 294371 440510 6.616 9.996 508 0.004 0.01 2.122 0.0093880000000001
1452	19258369 10160 294371 440510 6.616 9.996 508 0 0 0 0
1453	19268529 5707 295123 440415 6.635 9.995 169 5677.6718371994 5735.867933967 965076.70866781 5511130899.9702
1454	19274236 3380 295123 440415 6.635 9.995 169 0 0 0 0
1455	19277616 5070 295123 440415 6.635 9.995 169 0.014999246 0.026999246 2.618872574 0.041189050644079
1456	19282686 5706 295136 440428 6.635 9.995 169 5678.0708364732 5735.867933967 965137.1813835 5511820427.5243
1457	19288392 3380 295136 440428 6.635 9.995 169 0 0 0 0
1458	19291772 5070 295136 440428 6.635 9.995 169 0.014999246 0.014999246 2.534872574 0.038021177316079
1459	19296842 9520 294335 440558 6.615002444 9.996002444 340 464 464 157760 73200640
1460	19306362 742 294335 437022 6.6 9.9 34 37120 55680 1582240 73868057600
1461	19307104 9520 294335 440558 6.615002444 9.996002444 340 464 464 157760 73200640
1462	19316624 742 294335 437022 6.6 9.9 34 37120 55680 1582240 73868057600
1463	19317366 9520 294335 440558 6.615002444 9.996002444 340 464 464 157760 73200640
1464	19326886 742 294335 437022 6.6 9.9 34 37120 55680 1582240 73868057600
1465	19327628 9520 294335 440558 6.615002444 9.996002444 340 464 464 157760 73200640
1466	19337148 742 294335 437022 6.6 9.9 34 37120 55680 1582240 73868057600
1467	19337890 9520 294335 440558 6.615002444 9.996002444 340 464 464 157760 73200640
1468	19347410 742 294335 437022 6.6 9.9 34 37120 55680 1582240 73868057600
1469	19348152 9520 294335 440558 6.615002444 9.996002444 340 464 464 157760 73200640
1470	19357672 742 294335 437022 6.6 9.9 34 37120 55680 1582240 73868057600
1471	19358414 9520 294335 440558 6.615002444 9.996002444 340 640 640 217600 139264000
1472	19367934 1703 294335 554736 6.6 15 85 0 76800 2246400 144629760000
1473	19369637 17680 294335 440559 6.615002444 9.996002444 680 0 1 340 340
1474	19387317 18360 294335 440559 6.615002444 9.996002444 680 0 640 217600 139264000
1475	19405677 9520 294336 440621 6.615002444 9.997002444 340 464 464 157760 73200640
1476	19415197 742 294336 437023 6.6 9.9 34 46400 46400 1577600 73200640000
1477	19415939 9520 294336 440621 6.615002444 9.997002444 340 464 464 157760 73200640
1478	19425459 742 294336 437023 6.6 9.9 34 46400 46400 1577600 73200640000
1479	19426201 9520 294336 440621 6.615002444 9.997002444 340 464 464 157760 73200640
1480	19435721 742 294336 437023 6.6 9.9 34 46400 46400 1577600 73200640000
1481	19436463 9520 294336 440621 6.615002444 9.997002444 340 464 464 157760 73200640
1482	19445983 742 294336 437023 6.6 9.9 34 46400 46400 1577600 73200640000
1483	19446725 9520 294336 440621 6.615002444 9.997002444 340 464 464 157760 73200640
1484	19456245 742 294336 437023 6.6 9.9 34 46400 46400 1577600 73200640000
1485	19456987 9520 294336 440621 6.615002444 9.997002444 340 464 464 157760 73200640
1486	19466507 742 294336 437023 6.6 9.9 34 46400 46400 1577600 73200640000
1487	19467249 9520 294336 440621 6.615002444 9.997002444 340 640 640 217600 139264000
1488	19476769 1703 294336 554736 6.6 15 85 0 64000 2240000 143360000000
1489	19478472 17680 294336 440622 6.615002444 9.997002444 680 0 1 340 340
1490	19496152 18360 294336 440622 6.615002444 9.997002444 680 0 640 217600 139264000
1491	19514512 8840 294337 440559 6.615002444 9.996002444 340 0 0 0 0
1492	19523352 9520 294337 440559 6.615002444 9.996002444 340 640 640 217600 139264000
1493	19532872 1703 294337 554736 6.6 15 85 0 76800 2246400 144629760000
1494	19534575 9520 294337 440559 6.615002444 9.996002444 340 640 640 217600 139264000
1495	19544095 742 294337 437024 6.6 9.9 34 51200 76800 2182400 140533760000
1496	19544837 9520 294337 440559 6.615002444 9.996002444 340 640 640 217600 139264000
1497	19554357 742 294337 437024 6.6 9.9 34 51200 76800 2182400 140533760000
1498	19555099 9520 294337 440559 6.615002444 9.996002444 340 640 640 217600 139264000
1499	19564619 742 294337 437024 6.6 9.9 34 51200 76800 2182400 140533760000
1500	19565361 9520 294337 440559 6.615002444 9.996002444 340 640 640 217600 139264000
1501	19574881 742 294337 437024 6.6 9.9 34 51200 76800 2182400 140533760000
1502	19575623 8840 294338 440622 6.615002444 9.997002444 340 0 0 0 0
1503	19584463 9520 294338 440622 6.615002444 9.997002444 340 640 640 217600 139264000
1504	19593983 1703 294338 554736 6.6 15 85 0 64000 2240000 143360000000
1505	19595686 9520 294338 440622 6.615002444 9.997002444 340 640 640 217600 139264000
1506	19605206 742 294338 437025 6.6 9.9 34 64000 64000 2176000 139264000000
1507	19605948 9520 294338 440622 6.615002444 9.997002444 340 640 640 217600 139264000
1508	19615468 742 294338 437025 6.6 9.9 34 64000 64000 2176000 139264000000
1509	19616210 9520 294338 440622 6.615002444 9.997002444 340 640 640 217600 139264000
1510	19625730 742 294338 437025 6.6 9.9 34 64000 64000 2176000 139264000000
1511	19626472 9520 294338 440622 6.615002444 9.997002444 340 640 640 217600 139264000
1512	19635992 742 294338 437025 6.6 9.9 34 64000 64000 2176000 139264000000
1513	19636734 19038 294345 440626 6.615003198 9.997003198 680 464 464 315520 146401280
1514	19655772 743 294345 437032 6.6 9.9 34 83520 102080 3159840 293900569600
1515	19656515 19038 294345 440626 6.615003198 9.997003198 680 464 464 315520 146401280
1516	19675553 743 294345 437032 6.6 9.9 34 83520 102080 3159840 293900569600
1517	19676296 19038 294345 440626 6.615003198 9.997003198 680 464 464 315520 146401280
1518	19695334 743 294345 437032 6.6 9.9 34 83520 102080 3159840 293900569600
1519	19696077 19038 294345 440626 6.615003198 9.997003198 680 464 464 315520 146401280
1520	19715115 743 294345 437032 6.6 9.9 34 83520 102080 3159840 293900569600
1521	19715858 19038 294345 440626 6.615003198 9.997003198 680 464 464 315520 146401280
1522	19734896 743 294345 437032 6.6 9.9 34 83520 102080 3159840 293900569600
1523	19735639 19038 294345 440626 6.615003198 9.997003198 680 464 464 315520 146401280
1524	19754677 743 294345 437032 6.6 9.9 34 83520 102080 3159840 293900569600
1525	19755420 19038 294345 440626 6.615003198 9.997003198 680 640 640 435200 278528000
1526	19774458 1738 294345 554736 6.6 15 85 0 140800 4486400 575528960000
1527	19776196 35356 294345 440627 6.615003198 9.997003198 1360 0 2 996 1312
1528	19811552 37190 294345 440627 6.615003198 9.997003198 1360 0 1280 637440 537395200
1529	19848742 18310 294347 440627 6.615003198 9.997003198 680 0 8e-07 0.0001264 1.0112e-10
1530	19867052 19038 294347 440627 6.615003198 9.997003198 680 640 640 435200 278528000
1531	19886090 1738 294347 554736 6.6 15 85 0 140800 4486400 575528960000
1532	19887828 19038 294347 440627 6.615003198 9.997003198 680 640 640 435200 278528000
1533	19906866 776 294347 437034 6.6 9.9 34 115200 140800 4358400 559144960000
1534	19907642 19038 294347 440627 6.615003198 9.997003198 680 640 640 435200 278528000
1535	19926680 776 294347 437034 6.6 9.9 34 115200 140800 4358400 559144960000
1536	19927456 19038 294347 440627 6.615003198 9.997003198 680 640 640 435200 278528000
1537	19946494 776 294347 437034 6.6 9.9 34 115200 140800 4358400 559144960000
1538	19947270 19038 294347 440627 6.615003198 9.997003198 680 640 640 435200 278528000
1539	19966308 776 294347 437034 6.6 9.9 34 115200 140800 4358400 559144960000
1540	19967084 18360 294356 440634 6.615003952 9.997003952 680 30 30 20400 612000
1541	19985444 19040 294357 440635 6.615003952 9.997003952 680 240 240 163200 39168000
1542	20004484 1703 294357 554736 6.6 15 85 0 52800 1682400 80933760000
1543	20006187 19040 294357 440635 6.615003952 9.997003952 680 240 240 163200 39168000
1544	20025227 1703 294357 554736 6.6 15 85 0 52800 1682400 80933760000
1545	20026930 24480 294357 440635 6.597003952 9.996003952 680 0.015003952 0.027003952 10.871816304 0.17518281916798
1546	20051410 23452 294357 440635 6.597003952 9.996003952 680 -0.012 0.01 0 0.0026337571367119
1547	20074862 29691 294357 440635 6.597003952 9.996003952 680 -0.010920190752784 0.0011157646346014 0.071956200461519 0.0013706473756038
1548	20104553 29161 294357 440635 6.597003952 9.996003952 680 0.0015171283299943 0.0015880949026775 1.0522299554927 0.0016284840385777
1549	20133714 300 297302 433954 6.682 9.842 15 0 0 0 0
1550	20134014 10011 294403 440606 6.616 9.997 509 1 2 524 554
1551	20144025 5765 294440 440579 6.617 9.997 170 5675.8349705305 5734.7204161248 970577.73448766 5541349442.3638
1552	20149790 3400 294440 440579 6.617 9.997 170 0 0 0 0
1553	20153190 5100 294440 440579 6.617 9.997 170 0.016999246 0.016999246 2.88987182 0.049125641976648
1554	20158290 5733 294371 440510 6.616 9.996 170 5674.0008980692 5735.2941176471 970643.26312742 5542097850.6297
1555	20164023 3400 294371 440510 6.616 9.996 170 0 0 0 0
1556	20167423 5100 294371 440510 6.616 9.996 170 0.015999246 0.020999246 2.79487182 0.046290785236648
1560	20172523 240 311944 428766 7.022 9.722 12 0 1 2 2
1561	20172763 40 312186 405605 7.028 9.188 2 0 0 0 0
1562	20172803 2721 554736 554736 0.1 15 150 0 0 0 0
1563	20175524 2721 554736 554736 0.1 15 150 0 0 0 0
1564	20178245 2721 554736 554736 0.1 15 150 0 0 0 0
1565	20180966 2721 554736 554736 0.1 15 150 0 0 0 0
1566	20183687 2721 554736 554736 0.1 15 150 0 0 0 0
1567	20186408 2721 554736 554736 0.1 15 150 0 0 0 0
1568	20189129 2721 554736 554736 0.1 15 150 0 0 0 0
1569	20191850 2721 554736 554736 0.1 15 150 0 0 0 0
1570	20194571 2721 554736 554736 0.1 15 150 0 0 0 0
1571	20197292 2721 554736 554736 0.1 15 150 0 0 0 0
1572	20200013 2721 554736 554736 0.1 15 150 0 0 0 0
1573	20202734 2721 554736 554736 0.1 15 150 0 0 0 0
1574	20205455 2721 554736 554736 0.1 15 150 0 0 0 0
1575	20208176 2721 554736 554736 0.1 15 150 0 0 0 0
1576	20210897 2721 554736 554736 0.1 15 150 0 0 0 0
1577	20213618 2721 554736 554736 0.1 15 150 0 0 0 0
1578	20216339 2721 554736 554736 0.1 15 150 0 0 0 0
1579	20219060 2721 554736 554736 0.1 15 150 0 0 0 0
1580	20221781 2721 554736 554736 0.1 15 150 0 0 0 0
1581	20224502 2721 554736 554736 0.1 15 150 0 0 0 0
1582	20227223 2721 554736 554736 0.1 15 150 0 0 0 0
1583	20229944 2721 554736 554736 0.1 15 150 0 0 0 0
1584	20232665 2721 554736 554736 0.1 15 150 0 0 0 0
1585	20235386 2721 554736 554736 0.1 15 150 0 0 0 0
1586	20238107 2721 554736 554736 0.1 15 150 0 0 0 0
1587	20240828 2721 554736 554736 0.1 15 150 0 0 0 0
1588	20243549 2721 554736 554736 0.1 15 150 0 0 0 0
1589	20246270 2721 554736 554736 0.1 15 150 0 0 0 0
1590	20248991 2721 554736 554736 0.1 15 150 0 0 0 0
1591	20251712 2721 554736 554736 0.1 15 150 0 0 0 0
1592	20254433 2721 554736 554736 0.1 15 150 0 0 0 0
1593	20257154 2721 554736 554736 0.1 15 150 0 0 0 0
1594	20259875 2721 554736 554736 0.1 15 150 0 0 0 0
1595	20262596 2721 554736 554736 0.1 15 150 0 0 0 0
1596	20265317 2721 554736 554736 0.1 15 150 0 0 0 0
1597	20268038 2721 554736 554736 0.1 15 150 0 0 0 0
1598	20270759 2721 554736 554736 0.1 15 150 0 0 0 0
1599	20273480 2721 554736 554736 0.1 15 150 0 0 0 0
1600	20276201 2721 554736 554736 0.1 15 150 0 0 0 0
1601	20278922 2721 554736 554736 0.1 15 150 0 0 0 0
1602	20281643 2721 554736 554736 0.1 15 150 0 0 0 0
1603	20284364 2721 554736 554736 0.1 15 150 0 0 0 0
1604	20287085 2721 554736 554736 0.1 15 150 0 0 0 0
1605	20289806 2721 554736 554736 0.1 15 150 0 0 0 0
1606	20292527 2721 554736 554736 0.1 15 150 0 0 0 0
1607	20295248 2721 554736 554736 0.1 15 150 0 0 0 0
1608	20297969 2721 554736 554736 0.1 15 150 0 0 0 0
1609	20300690 2721 554736 554736 0.1 15 150 0 0 0 0
1610	20303411 2721 554736 554736 0.1 15 150 0 0 0 0
1611	20306132 2721 554736 554736 0.1 15 150 0 0 0 0
1612	20308853 2721 554736 554736 0.1 15 150 0 0 0 0
1613	20311574 2721 554736 554736 0.1 15 150 0 0 0 0
1614	20314295 2721 554736 554736 0.1 15 150 0 0 0 0
1615	20317016 2721 554736 554736 0.1 15 150 0 0 0 0
1616	20319737 2721 554736 554736 0.1 15 150 0 0 0 0
1617	20322458 2721 554736 554736 0.1 15 150 0 0 0 0
1618	20325179 2721 554736 554736 0.1 15 150 0 0 0 0
1619	20327900 2721 554736 554736 0.1 15 150 0 0 0 0
1620	20330621 2721 554736 554736 0.1 15 150 0 0 0 0
1621	20333342 2721 554736 554736 0.1 15 150 0 0 0 0
1622	20336063 2721 554736 554736 0.1 15 150 0 0 0 0
1623	20338784 2721 554736 554736 0.1 15 150 0 0 0 0
1624	20341505 2721 554736 554736 0.1 15 150 0 0 0 0
1625	20344226 2721 554736 554736 0.1 15 150 0 0 0 0
1626	20346947 2721 554736 554736 0.1 15 150 0 0 0 0
1627	20349668 2721 554736 554736 0.1 15 150 0 0 0 0
1628	20352389 2721 554736 554736 0.1 15 150 0 0 0 0
1629	20355110 2721 554736 554736 0.1 15 150 0 0 0 0
1630	20357831 2721 554736 554736 0.1 15 150 0 0 0 0
1631	20360552 2721 554736 554736 0.1 15 150 0 0 0 0
1632	20363273 2721 554736 554736 0.1 15 150 0 0 0 0
1633	20365994 2721 554736 554736 0.1 15 150 0 0 0 0
1634	20368715 2721 554736 554736 0.1 15 150 0 0 0 0
1635	20371436 2721 554736 554736 0.1 15 150 0 0 0 0
1636	20374157 2721 554736 554736 0.1 15 150 0 0 0 0
1637	20376878 2721 554736 554736 0.1 15 150 0 0 0 0
1638	20379599 2721 554736 554736 0.1 15 150 0 0 0 0
1639	20382320 2721 554736 554736 0.1 15 150 0 0 0 0
1640	20385041 2721 554736 554736 0.1 15 150 0 0 0 0
1641	20387762 2721 554736 554736 0.1 15 150 0 0 0 0
1642	20390483 2721 554736 554736 0.1 15 150 0 0 0 0
1643	20393204 2721 554736 554736 0.1 15 150 0 0 0 0
1644	20395925 2721 554736 554736 0.1 15 150 0 0 0 0
1645	20398646 2721 554736 554736 0.1 15 150 0 0 0 0
1646	20401367 2721 554736 554736 0.1 15 150 0 0 0 0
1647	20404088 2721 554736 554736 0.1 15 150 0 0 0 0
1648	20406809 2721 554736 554736 0.1 15 150 0 0 0 0
1649	20409530 2721 554736 554736 0.1 15 150 0 0 0 0
1650	20412251 2721 554736 554736 0.1 15 150 0 0 0 0
1651	20414972 2721 554736 554736 0.1 15 150 0 0 0 0
1652	20417693 2721 554736 554736 0.1 15 150 0 0 0 0
1653	20420414 2725 554736 554736 0.1 15 150 0 79360 79360 6298009600
1654	20423139 2725 554736 554736 0.1 15 150 0 79360 79360 6298009600
1655	20425864 2721 554736 554736 0.1 15 150 0 0 0 0
1656	20428585 2721 554736 554736 0.1 15 150 0 0 0 0
1657	20431306 2725 554736 554736 0.1 15 150 0 79360 79360 6298009600
1658	20434031 2725 554736 554736 0.1 15 150 0 79360 79360 6298009600
1659	20436756 2721 554736 554736 0.1 15 150 0 0 0 0
1660	20439477 2721 554736 554736 0.1 15 150 0 0 0 0
1661	20442198 2721 554736 554736 0.1 15 150 0 0 0 0
1662	20444919 2721 554736 554736 0.1 15 150 0 0 0 0
1663	20447640 2721 554736 554736 0.1 15 150 0 0 0 0
1664	20450361 2721 554736 554736 0.1 15 150 0 0 0 0
1665	20453082 2721 554736 554736 0.1 15 150 0 0 0 0
1666	20455803 2721 554736 554736 0.1 15 150 0 0 0 0
1667	20458524 2721 554736 554736 0.1 15 150 0 0 0 0
1668	20461245 2721 554736 554736 0.1 15 150 0 0 0 0
1669	20463966 2721 554736 554736 0.1 15 150 0 0 0 0
1670	20466687 2721 554736 554736 0.1 15 150 0 0 0 0
1671	20469408 2721 554736 554736 0.1 15 150 0 0 0 0
1672	20472129 2721 554736 554736 0.1 15 150 0 0 0 0
1673	20474850 2721 554736 554736 0.1 15 150 0 0 0 0
1674	20477571 2721 554736 554736 0.1 15 150 0 0 0 0
1675	20480292 2721 554736 554736 0.1 15 150 0 0 0 0
1676	20483013 2721 554736 554736 0.1 15 150 0 0 0 0
1677	20485734 2721 554736 554736 0.1 15 150 0 0 0 0
1678	20488455 2721 554736 554736 0.1 15 150 0 0 0 0
1679	20491176 2721 554736 554736 0.1 15 150 0 0 0 0
1680	20493897 2721 554736 554736 0.1 15 150 0 0 0 0
1681	20496618 2721 554736 554736 0.1 15 150 0 0 0 0
1682	20499339 2721 554736 554736 0.1 15 150 0 0 0 0
1683	20502060 2721 554736 554736 0.1 15 150 0 0 0 0
1684	20504781 2721 554736 554736 0.1 15 150 0 0 0 0
1685	20507502 2721 554736 554736 0.1 15 150 0 0 0 0
1686	20510223 2721 554736 554736 0.1 15 150 0 0 0 0
1687	20512944 2721 554736 554736 0.1 15 150 0 0 0 0
1688	20515665 2721 554736 554736 0.1 15 150 0 0 0 0
1689	20518386 2721 554736 554736 0.1 15 150 0 0 0 0
1690	20521107 2721 554736 554736 0.1 15 150 0 0 0 0
1691	20523828 2721 554736 554736 0.1 15 150 0 0 0 0
1692	20526549 2721 554736 554736 0.1 15 150 0 0 0 0
1693	20529270 2721 554736 554736 0.1 15 150 0 0 0 0
1694	20531991 2721 554736 554736 0.1 15 150 0 0 0 0
1695	20534712 2721 554736 554736 0.1 15 150 0 0 0 0
1696	20537433 2721 554736 554736 0.1 15 150 0 0 0 0
1697	20540154 2721 554736 554736 0.1 15 150 0 0 0 0
1698	20542875 2721 554736 554736 0.1 15 150 0 0 0 0
1699	20545596 2721 554736 554736 0.1 15 150 0 0 0 0
1700	20548317 2721 554736 554736 0.1 15 150 0 0 0 0
1701	20551038 2721 554736 554736 0.1 15 150 0 0 0 0
1702	20553759 2721 554736 554736 0.1 15 150 0 0 0 0
1703	20556480 2721 554736 554736 0.1 15 150 0 0 0 0
1704	20559201 2721 554736 554736 0.1 15 150 0 0 0 0
1705	20561922 2721 554736 554736 0.1 15 150 0 0 0 0
1706	20564643 2721 554736 554736 0.1 15 150 0 0 0 0
1707	20567364 2721 554736 554736 0.1 15 150 0 0 0 0
1708	20570085 2721 554736 554736 0.1 15 150 0 0 0 0
1709	20572806 2721 554736 554736 0.1 15 150 0 0 0 0
1710	20575527 2721 554736 554736 0.1 15 150 0 0 0 0
1711	20578248 2721 554736 554736 0.1 15 150 0 0 0 0
1712	20580969 2721 554736 554736 0.1 15 150 0 0 0 0
1713	20583690 2721 554736 554736 0.1 15 150 0 0 0 0
1714	20586411 2721 554736 554736 0.1 15 150 0 0 0 0
1715	20589132 2721 554736 554736 0.1 15 150 0 0 0 0
1716	20591853 2721 554736 554736 0.1 15 150 0 0 0 0

